*************************************************
   ChampSim Multicore Out-of-Order Simulator
   Last compiled: Apr  7 2025 23:26:12
*************************************************
parsing config file: /home/Pythia/config/pythia.ini

trace_0 /home/Pythia/traces/605.mcf_s-472B.champsimtrace.xz
adding L2C_PREFETCHER: Scooby
Initialize SHIP state
warmup_instructions 100000000
simulation_instructions 500000000
champsim_seed 223
measure_ipc 0
measure_ipc_epoch 1000
measure_dram_bw 1
measure_dram_bw_epoch 256
measure_cache_acc 1
measure_cache_acc_epoch 1024
l1d_perfect 0
l2c_perfect 0
llc_perfect 0
l1d_semi_perfect 0
l2c_semi_perfect 0
llc_semi_perfect 0
semi_perfect_cache_page_buffer_size 64

num_cpus 1
cpu_freq 4000
dram_io_freq 2400
page_size 4096
block_size 64
max_read_per_cycle 8
max_fill_per_cycle 1
dram_channels 1
log2_dram_channels 0
dram_ranks 1
dram_banks 8
dram_rows 65536
dram_columns 128
dram_row_size 8
dram_size 4096
dram_pages 1048576

fetch_width 6
decode_width 6
exec_width 4
lq_width 2
sq_width 2
retire_width 4
scheduler_size 128
branch_mispredict_penalty 20
rob_size 256
lq_size 72
sq_size 56
num_instr_destinations_sparc 4
num_instr_destinations 2
num_instr_sources 4

itlb_set 16
itlb_way 8
itlb_rq_size 16
itlb_wq_size 16
itlb_pq_size 0
itlb_mshr_size 8
itlb_latency 1

dtlb_set 16
dtlb_way 4
dtlb_rq_size 16
dtlb_wq_size 16
dtlb_pq_size 0
dtlb_mshr_size 8
dtlb_latency 1

stlb_set 128
stlb_way 12
stlb_rq_size 32
stlb_wq_size 32
stlb_pq_size 0
stlb_mshr_size 16
stlb_latency 8

l1i_size 32
l1i_set 64
l1i_way 8
l1i_rq_size 64
l1i_wq_size 64
l1i_pq_size 8
l1i_mshr_size 8
l1i_latency 1

l1d_size 32
l1d_set 64
l1d_way 8
l1d_rq_size 64
l1d_wq_size 64
l1d_pq_size 8
l1d_mshr_size 16
l1d_latency 4

l2c_size 256
l2c_set 512
l2c_way 8
l2c_rq_size 32
l2c_wq_size 32
l2c_pq_size 32
l2c_mshr_size 32
l2c_latency 10

llc_size 2048
llc_set 2048
llc_way 16
llc_rq_size 32
llc_wq_size 32
llc_pq_size 32
llc_mshr_size 64
llc_latency 20

dram_channel_width 8
dram_wq_size 64
dram_rq_size 64
tRP 15
tRCD 15
tCAS 12.5
dram_dbus_turn_around_time 30
dram_write_high_wm 56
dram_write_low_wm 48
min_dram_writes_per_switch 16
dram_mtps 2400
dram_dbus_return_time 13

scooby_alpha 0.0065088
scooby_gamma 0.556301
scooby_epsilon 0.00182284
scooby_state_num_bits 10
scooby_max_states 1024
scooby_seed 200
scooby_policy EGreedy
scooby_learning_type SARSA
scooby_actions 1,3,4,5,10,11,12,22,23,30,32,-1,-3,-6,0,
scooby_max_actions 15
scooby_pt_size 256
scooby_st_size 64
scooby_max_pcs 5
scooby_max_offsets 5
scooby_max_deltas 5
scooby_reward_none -4
scooby_reward_incorrect -8
scooby_reward_correct_untimely 12
scooby_reward_correct_timely 20
scooby_brain_zero_init 0
scooby_enable_reward_all 0
scooby_enable_track_multiple 0
scooby_enable_reward_out_of_bounds 1
scooby_reward_out_of_bounds -12
scooby_state_type 1
scooby_state_hash_type 11
scooby_access_debug 0
scooby_print_access_debug 0
scooby_print_access_debug_pc deadbeef
scooby_print_access_debug_pc_count 0
scooby_print_trace 0
scooby_enable_state_action_stats 1
scooby_enable_reward_tracker_hit 0
scooby_reward_tracker_hit -2
scooby_enable_featurewise_engine 1
scooby_pref_degree 1
scooby_enable_dyn_degree 1
scooby_max_to_avg_q_thresholds 0.5,1,2,
scooby_dyn_degrees 1,2,4,4,
scooby_multi_deg_select_type 2
scooby_last_pref_offset_conf_thresholds 1,3,8,
scooby_dyn_degrees_type2 1,2,4,6,
scooby_action_tracker_size 2
scooby_high_bw_thresh 4
scooby_enable_hbw_reward 1
scooby_reward_hbw_correct_timely 20
scooby_reward_hbw_correct_untimely 12
scooby_reward_hbw_incorrect -14
scooby_reward_hbw_none -2
scooby_reward_hbw_out_of_bounds -12
scooby_reward_hbw_tracker_hit -2
scooby_last_pref_offset_conf_thresholds_hbw 1,3,8,
scooby_dyn_degrees_type2_hbw 1,2,4,6,

le_enable_trace 0
le_trace_interval 0
le_trace_file_name 
le_trace_state 0
le_enable_score_plot 0
le_plot_file_name 
le_plot_actions 
le_enable_action_trace 0
le_action_trace_interval 0
le_action_trace_name 
le_enable_action_plot 0

le_featurewise_active_features PC, PC_Delta
le_featurewise_num_tilings 3,3,
le_featurewise_num_tiles 128,128,
le_featurewise_hash_types 2,2,
le_featurewise_enable_tiling_offset 1,1,
le_featurewise_max_q_thresh 0.5
le_featurewise_enable_action_fallback 1
le_featurewise_feature_weights 1,1,
le_featurewise_enable_dynamic_weight 0
le_featurewise_weight_gradient 0.001
le_featurewise_disable_adjust_weight_all_features_align 1
le_featurewise_selective_update 0
le_featurewise_pooling_type 2
le_featurewise_enable_dyn_action_fallback 1
le_featurewise_bw_acc_check_level 1
le_featurewise_acc_thresh 2
le_featurewise_enable_trace 0
le_featurewise_trace_feature_type 0
le_featurewise_trace_feature 
le_featurewise_trace_interval 0
le_featurewise_trace_record_count 0
le_featurewise_trace_file_name 
le_featurewise_enable_score_plot 0
le_featurewise_plot_actions 
le_featurewise_plot_file_name 


[DEBUG] handlePhaseChange -> MAJOR reset (weights & contexts)
[DEBUG] handlePhaseChange() invoked with level = 2
[DEBUG] handlePhaseChange -> MAJOR reset (weights & contexts)
[DEBUG] handlePhaseChange() invoked with level = 2
[DEBUG] handlePhaseChange -> MAJOR reset (weights & contexts)
[DEBUG] handlePhaseChange() invoked with level = 2
[DEBUG] handlePhaseChange -> MAJOR reset (weights & contexts)
[DEBUG] handlePhaseChange() invoked with level = 2
[DEBUG] handlePhaseChange -> MAJOR reset (weights & contexts)
[DEBUG] handlePhaseChange() invoked with level = 2
[DEBUG] handlePhaseChange -> MAJOR reset (weights & contexts)
[DEBUG] handlePhaseChange() invoked with level = 2
[DEBUG] handlePhaseChange -> MAJOR reset (weights & contexts)
[DEBUG] handlePhaseChange() invoked with level = 2
[DEBUG] handlePhaseChange -> MAJOR reset (weights & contexts)
[DEBUG] handlePhaseChange() invoked with level = 2
[DEBUG] handlePhaseChange -> MAJOR reset (weights & contexts)
[DEBUG] handlePhaseChange() invoked with level = 2
[DEBUG] handlePhaseChange -> MAJOR reset (weights & contexts)
[DEBUG] handlePhaseChange() invoked with level = 2
[DEBUG] handlePhaseChange -> MAJOR reset (weights & contexts)
[DEBUG] handlePhaseChange() invoked with level = 2
[DEBUG] handlePhaseChange -> MAJOR reset (weights & contexts)
[DEBUG] handlePhaseChange() invoked with level = 2
[DEBUG] handlePhaseChange -> MAJOR reset (weights & contexts)
[DEBUG] handlePhaseChange() invoked with level = 2
[DEBUG] handlePhaseChange -> MAJOR reset (weights & contexts)
[DEBUG] handlePhaseChange() invoked with level = 2
[DEBUG] handlePhaseChange -> MAJOR reset (weights & contexts)
[DEBUG] handlePhaseChange() invoked with level = 2
[DEBUG] handlePhaseChange -> MAJOR reset (weights & contexts)
[DEBUG] handlePhaseChange() invoked with level = 2
[DEBUG] handlePhaseChange -> MAJOR reset (weights & contexts)
[DEBUG] handlePhaseChange() invoked with level = 2
[DEBUG] handlePhaseChange -> MAJOR reset (weights & contexts)
[DEBUG] handlePhaseChange() invoked with level = 2
[DEBUG] handlePhaseChange -> MAJOR reset (weights & contexts)
[DEBUG] handlePhaseChange() invoked with level = 2
[DEBUG] handlePhaseChange -> MAJOR reset (weights & contexts)
[DEBUG] handlePhaseChange() invoked with level = 2
[DEBUG] handlePhaseChange -> MAJOR reset (weights & contexts)
[DEBUG] handlePhaseChange() invoked with level = 2
[DEBUG] handlePhaseChange -> MAJOR reset (weights & contexts)
[DEBUG] handlePhaseChange() invoked with level = 2
[DEBUG] handlePhaseChange -> MAJOR reset (weights & contexts)
[DEBUG] handlePhaseChange() invoked with level = 2
[DEBUG] handlePhaseChange -> MAJOR reset (weights & contexts)
[DEBUG] handlePhaseChange() invoked with level = 2
[DEBUG] handlePhaseChange -> MAJOR reset (weights & contexts)
[DEBUG] handlePhaseChange() invoked with level = 2
[DEBUG] handlePhaseChange -> MAJOR reset (weights & contexts)
[DEBUG] handlePhaseChange() invoked with level = 2
[DEBUG] handlePhaseChange -> MAJOR reset (weights & contexts)
[DEBUG] handlePhaseChange() invoked with level = 2
[DEBUG] handlePhaseChange -> MAJOR reset (weights & contexts)
[DEBUG] handlePhaseChange() invoked with level = 2
[DEBUG] handlePhaseChange -> MAJOR reset (weights & contexts)
[DEBUG] handlePhaseChange() invoked with level = 2
[DEBUG] handlePhaseChange -> MAJOR reset (weights & contexts)
[DEBUG] handlePhaseChange() invoked with level = 2
[DEBUG] handlePhaseChange -> MAJOR reset (weights & contexts)
[DEBUG] handlePhaseChange() invoked with level = 2
[DEBUG] handlePhaseChange -> MAJOR reset (weights & contexts)
[DEBUG] handlePhaseChange() invoked with level = 2
[DEBUG] handlePhaseChange -> MAJOR reset (weights & contexts)
[DEBUG] handlePhaseChange() invoked with level = 2
[DEBUG] handlePhaseChange -> MAJOR reset (weights & contexts)
[DEBUG] handlePhaseChange() invoked with level = 2
[DEBUG] handlePhaseChange -> MAJOR reset (weights & contexts)
[DEBUG] handlePhaseChange() invoked with level = 2
[DEBUG] handlePhaseChange -> MAJOR reset (weights & contexts)
[DEBUG] handlePhaseChange() invoked with level = 2
[DEBUG] handlePhaseChange -> MAJOR reset (weights & contexts)
[DEBUG] handlePhaseChange() invoked with level = 2
[DEBUG] handlePhaseChange -> MAJOR reset (weights & contexts)
[DEBUG] handlePhaseChange() invoked with level = 2
[DEBUG] handlePhaseChange -> MAJOR reset (weights & contexts)
[DEBUG] handlePhaseChange() invoked with level = 2
[DEBUG] handlePhaseChange -> MAJOR reset (weights & contexts)
[DEBUG] handlePhaseChange() invoked with level = 2
[DEBUG] handlePhaseChange -> MAJOR reset (weights & contexts)
[DEBUG] handlePhaseChange() invoked with level = 2
[DEBUG] handlePhaseChange -> MAJOR reset (weights & contexts)
[DEBUG] handlePhaseChange() invoked with level = 2
[DEBUG] handlePhaseChange -> MAJOR reset (weights & contexts)
[DEBUG] handlePhaseChange() invoked with level = 2
[DEBUG] handlePhaseChange -> MAJOR reset (weights & contexts)
[DEBUG] handlePhaseChange() invoked with level = 2
[DEBUG] handlePhaseChange -> MAJOR reset (weights & contexts)
[DEBUG] handlePhaseChange() invoked with level = 2
[DEBUG] handlePhaseChange -> MAJOR reset (weights & contexts)
[DEBUG] handlePhaseChange() invoked with level = 2
[DEBUG] handlePhaseChange -> MAJOR reset (weights & contexts)
[DEBUG] handlePhaseChange() invoked with level = 2
[DEBUG] handlePhaseChange -> MAJOR reset (weights & contexts)
[DEBUG] handlePhaseChange() invoked with level = 2
[DEBUG] handlePhaseChange -> MAJOR reset (weights & contexts)
[DEBUG] handlePhaseChange() invoked with level = 2
[DEBUG] handlePhaseChange -> MAJOR reset (weights & contexts)
[DEBUG] handlePhaseChange() invoked with level = 2
[DEBUG] handlePhaseChange -> MAJOR reset (weights & contexts)
[DEBUG] handlePhaseChange() invoked with level = 2
[DEBUG] handlePhaseChange -> MAJOR reset (weights & contexts)
[DEBUG] handlePhaseChange() invoked with level = 2
[DEBUG] handlePhaseChange -> MAJOR reset (weights & contexts)
[DEBUG] handlePhaseChange() invoked with level = 2
[DEBUG] handlePhaseChange -> MAJOR reset (weights & contexts)
[DEBUG] handlePhaseChange() invoked with level = 2
[DEBUG] handlePhaseChange -> MAJOR reset (weights & contexts)
[DEBUG] handlePhaseChange() invoked with level = 2
[DEBUG] handlePhaseChange -> MAJOR reset (weights & contexts)
[DEBUG] handlePhaseChange() invoked with level = 2
[DEBUG] handlePhaseChange -> MAJOR reset (weights & contexts)
[DEBUG] handlePhaseChange() invoked with level = 2
[DEBUG] handlePhaseChange -> MAJOR reset (weights & contexts)
[DEBUG] handlePhaseChange() invoked with level = 2
[DEBUG] handlePhaseChange -> MAJOR reset (weights & contexts)
[DEBUG] handlePhaseChange() invoked with level = 2
[DEBUG] handlePhaseChange -> MAJOR reset (weights & contexts)
[DEBUG] handlePhaseChange() invoked with level = 2
[DEBUG] handlePhaseChange -> MAJOR reset (weights & contexts)
[DEBUG] handlePhaseChange() invoked with level = 2
[DEBUG] handlePhaseChange -> MAJOR reset (weights & contexts)
[DEBUG] handlePhaseChange() invoked with level = 2
[DEBUG] handlePhaseChange -> MAJOR reset (weights & contexts)
[DEBUG] handlePhaseChange() invoked with level = 2
[DEBUG] handlePhaseChange -> MAJOR reset (weights & contexts)
[DEBUG] handlePhaseChange() invoked with level = 2
[DEBUG] handlePhaseChange -> MAJOR reset (weights & contexts)
[DEBUG] handlePhaseChange() invoked with level = 2
[DEBUG] handlePhaseChange -> MAJOR reset (weights & contexts)
[DEBUG] handlePhaseChange() invoked with level = 2
[DEBUG] handlePhaseChange -> MAJOR reset (weights & contexts)
[DEBUG] handlePhaseChange() invoked with level = 2
[DEBUG] handlePhaseChange -> MAJOR reset (weights & contexts)
[DEBUG] handlePhaseChange() invoked with level = 2
[DEBUG] handlePhaseChange -> MAJOR reset (weights & contexts)
[DEBUG] handlePhaseChange() invoked with level = 2
[DEBUG] handlePhaseChange -> MAJOR reset (weights & contexts)
[DEBUG] handlePhaseChange() invoked with level = 2
[DEBUG] handlePhaseChange -> MAJOR reset (weights & contexts)
[DEBUG] handlePhaseChange() invoked with level = 2
[DEBUG] handlePhaseChange -> MAJOR reset (weights & contexts)
[DEBUG] handlePhaseChange() invoked with level = 2
[DEBUG] handlePhaseChange -> MAJOR reset (weights & contexts)
[DEBUG] handlePhaseChange() invoked with level = 2
[DEBUG] handlePhaseChange -> MAJOR reset (weights & contexts)
[DEBUG] handlePhaseChange() invoked with level = 2
[DEBUG] handlePhaseChange -> MAJOR reset (weights & contexts)
[DEBUG] handlePhaseChange() invoked with level = 2
[DEBUG] handlePhaseChange -> MAJOR reset (weights & contexts)
[DEBUG] handlePhaseChange() invoked with level = 2
[DEBUG] handlePhaseChange -> MAJOR reset (weights & contexts)
[DEBUG] handlePhaseChange() invoked with level = 2
[DEBUG] handlePhaseChange -> MAJOR reset (weights & contexts)
[DEBUG] handlePhaseChange() invoked with level = 2
[DEBUG] handlePhaseChange -> MAJOR reset (weights & contexts)
[DEBUG] handlePhaseChange() invoked with level = 2
[DEBUG] handlePhaseChange -> MAJOR reset (weights & contexts)
[DEBUG] handlePhaseChange() invoked with level = 2
[DEBUG] handlePhaseChange -> MAJOR reset (weights & contexts)
[DEBUG] handlePhaseChange() invoked with level = 2
[DEBUG] handlePhaseChange -> MAJOR reset (weights & contexts)
[DEBUG] handlePhaseChange() invoked with level = 2
[DEBUG] handlePhaseChange -> MAJOR reset (weights & contexts)
[DEBUG] handlePhaseChange() invoked with level = 2
[DEBUG] handlePhaseChange -> MAJOR reset (weights & contexts)
[DEBUG] handlePhaseChange() invoked with level = 2
[DEBUG] handlePhaseChange -> MAJOR reset (weights & contexts)
[DEBUG] handlePhaseChange() invoked with level = 2
[DEBUG] handlePhaseChange -> MAJOR reset (weights & contexts)
[DEBUG] handlePhaseChange() invoked with level = 2
[DEBUG] handlePhaseChange -> MAJOR reset (weights & contexts)
[DEBUG] handlePhaseChange() invoked with level = 2
[DEBUG] handlePhaseChange -> MAJOR reset (weights & contexts)
[DEBUG] handlePhaseChange() invoked with level = 2
[DEBUG] handlePhaseChange -> MAJOR reset (weights & contexts)
[DEBUG] handlePhaseChange() invoked with level = 2
[DEBUG] handlePhaseChange -> MAJOR reset (weights & contexts)
[DEBUG] handlePhaseChange() invoked with level = 2
[DEBUG] handlePhaseChange -> MAJOR reset (weights & contexts)
[DEBUG] handlePhaseChange() invoked with level = 2
[DEBUG] handlePhaseChange -> MAJOR reset (weights & contexts)
[DEBUG] handlePhaseChange() invoked with level = 2
[DEBUG] handlePhaseChange -> MAJOR reset (weights & contexts)
[DEBUG] handlePhaseChange() invoked with level = 2
[DEBUG] handlePhaseChange -> MAJOR reset (weights & contexts)
[DEBUG] handlePhaseChange() invoked with level = 2
[DEBUG] handlePhaseChange -> MAJOR reset (weights & contexts)
[DEBUG] handlePhaseChange() invoked with level = 2
[DEBUG] handlePhaseChange -> MAJOR reset (weights & contexts)
[DEBUG] handlePhaseChange() invoked with level = 2
[DEBUG] handlePhaseChange -> MAJOR reset (weights & contexts)
[DEBUG] handlePhaseChange() invoked with level = 2
[DEBUG] handlePhaseChange -> MAJOR reset (weights & contexts)
[DEBUG] handlePhaseChange() invoked with level = 2
[DEBUG] handlePhaseChange -> MAJOR reset (weights & contexts)
[DEBUG] handlePhaseChange() invoked with level = 2
[DEBUG] handlePhaseChange -> MAJOR reset (weights & contexts)
[DEBUG] handlePhaseChange() invoked with level = 2
[DEBUG] handlePhaseChange -> MAJOR reset (weights & contexts)
[DEBUG] handlePhaseChange -> MAJOR reset (weights & contexts)
[DEBUG] handlePhaseChange -> MAJOR reset (weights & contexts)
[DEBUG] handlePhaseChange -> MAJOR reset (weights & contexts)
[DEBUG] handlePhaseChange -> MAJOR reset (weights & contexts)
[DEBUG] handlePhaseChange -> MAJOR reset (weights & contexts)
[DEBUG] handlePhaseChange -> MAJOR reset (weights & contexts)
[DEBUG] handlePhaseChange -> MAJOR reset (weights & contexts)
[DEBUG] handlePhaseChange -> MAJOR reset (weights & contexts)
[DEBUG] handlePhaseChange -> MAJOR reset (weights & contexts)
[DEBUG] handlePhaseChange -> MAJOR reset (weights & contexts)
[DEBUG] handlePhaseChange -> MAJOR reset (weights & contexts)
[DEBUG] handlePhaseChange -> MAJOR reset (weights & contexts)
[DEBUG] handlePhaseChange -> MAJOR reset (weights & contexts)
[DEBUG] handlePhaseChange -> MAJOR reset (weights & contexts)
[DEBUG] handlePhaseChange -> MAJOR reset (weights & contexts)
[DEBUG] handlePhaseChange -> MAJOR reset (weights & contexts)
[DEBUG] handlePhaseChange -> MAJOR reset (weights & contexts)
[DEBUG] handlePhaseChange -> MAJOR reset (weights & contexts)
[DEBUG] handlePhaseChange -> MAJOR reset (weights & contexts)
[DEBUG] handlePhaseChange -> MAJOR reset (weights & contexts)
[DEBUG] handlePhaseChange -> MAJOR reset (weights & contexts)
[DEBUG] handlePhaseChange -> MAJOR reset (weights & contexts)
[DEBUG] handlePhaseChange -> MAJOR reset (weights & contexts)
[DEBUG] handlePhaseChange -> MAJOR reset (weights & contexts)
[DEBUG] handlePhaseChange -> MAJOR reset (weights & contexts)
[DEBUG] handlePhaseChange -> MAJOR reset (weights & contexts)
[DEBUG] handlePhaseChange -> MAJOR reset (weights & contexts)
[DEBUG] handlePhaseChange -> MAJOR reset (weights & contexts)
[DEBUG] handlePhaseChange -> MAJOR reset (weights & contexts)
[DEBUG] handlePhaseChange -> MAJOR reset (weights & contexts)
[DEBUG] handlePhaseChange -> MAJOR reset (weights & contexts)
[DEBUG] handlePhaseChange -> MAJOR reset (weights & contexts)
[DEBUG] handlePhaseChange -> MAJOR reset (weights & contexts)
[DEBUG] handlePhaseChange -> MAJOR reset (weights & contexts)
[DEBUG] handlePhaseChange -> MAJOR reset (weights & contexts)
[DEBUG] handlePhaseChange -> MAJOR reset (weights & contexts)
[DEBUG] handlePhaseChange -> MAJOR reset (weights & contexts)
[DEBUG] handlePhaseChange -> MAJOR reset (weights & contexts)
[DEBUG] handlePhaseChange -> MAJOR reset (weights & contexts)
[DEBUG] handlePhaseChange -> MAJOR reset (weights & contexts)
[DEBUG] handlePhaseChange -> MAJOR reset (weights & contexts)
[DEBUG] handlePhaseChange -> MAJOR reset (weights & contexts)
[DEBUG] handlePhaseChange -> MAJOR reset (weights & contexts)
[DEBUG] handlePhaseChange -> MAJOR reset (weights & contexts)
[DEBUG] handlePhaseChange -> MAJOR reset (weights & contexts)
[DEBUG] handlePhaseChange -> MAJOR reset (weights & contexts)
[DEBUG] handlePhaseChange -> MAJOR reset (weights & contexts)
[DEBUG] handlePhaseChange -> MAJOR reset (weights & contexts)
[DEBUG] handlePhaseChange -> MAJOR reset (weights & contexts)
[DEBUG] handlePhaseChange -> MAJOR reset (weights & contexts)
[DEBUG] handlePhaseChange -> MAJOR reset (weights & contexts)
[DEBUG] handlePhaseChange -> MAJOR reset (weights & contexts)
[DEBUG] handlePhaseChange -> MAJOR reset (weights & contexts)
[DEBUG] handlePhaseChange -> MAJOR reset (weights & contexts)
[DEBUG] handlePhaseChange -> MAJOR reset (weights & contexts)
[DEBUG] handlePhaseChange -> MAJOR reset (weights & contexts)
[DEBUG] handlePhaseChange -> MAJOR reset (weights & contexts)
[DEBUG] handlePhaseChange -> MAJOR reset (weights & contexts)
[DEBUG] handlePhaseChange -> MAJOR reset (weights & contexts)
[DEBUG] handlePhaseChange -> MAJOR reset (weights & contexts)
[DEBUG] handlePhaseChange -> MAJOR reset (weights & contexts)
[DEBUG] handlePhaseChange -> MAJOR reset (weights & contexts)
[DEBUG] handlePhaseChange -> MAJOR reset (weights & contexts)
[DEBUG] handlePhaseChange -> MAJOR reset (weights & contexts)
[DEBUG] handlePhaseChange -> MAJOR reset (weights & contexts)
[DEBUG] handlePhaseChange -> MAJOR reset (weights & contexts)
[DEBUG] handlePhaseChange -> MAJOR reset (weights & contexts)
[DEBUG] handlePhaseChange -> MAJOR reset (weights & contexts)
[DEBUG] handlePhaseChange -> MAJOR reset (weights & contexts)
[DEBUG] handlePhaseChange -> MAJOR reset (weights & contexts)
[DEBUG] handlePhaseChange -> MAJOR reset (weights & contexts)
[DEBUG] handlePhaseChange -> MAJOR reset (weights & contexts)
[DEBUG] handlePhaseChange -> MAJOR reset (weights & contexts)
[DEBUG] handlePhaseChange -> MAJOR reset (weights & contexts)
[DEBUG] handlePhaseChange -> MAJOR reset (weights & contexts)
[DEBUG] handlePhaseChange -> MAJOR reset (weights & contexts)
[DEBUG] handlePhaseChange -> MAJOR reset (weights & contexts)
[DEBUG] handlePhaseChange -> MAJOR reset (weights & contexts)
[DEBUG] handlePhaseChange -> MAJOR reset (weights & contexts)
[DEBUG] handlePhaseChange -> MAJOR reset (weights & contexts)
[DEBUG] handlePhaseChange -> MAJOR reset (weights & contexts)
[DEBUG] handlePhaseChange -> MAJOR reset (weights & contexts)
[DEBUG] handlePhaseChange -> MAJOR reset (weights & contexts)
[DEBUG] handlePhaseChange -> MAJOR reset (weights & contexts)
[DEBUG] handlePhaseChange -> MAJOR reset (weights & contexts)
[DEBUG] handlePhaseChange -> MAJOR reset (weights & contexts)
[DEBUG] handlePhaseChange -> MAJOR reset (weights & contexts)
[DEBUG] handlePhaseChange -> MAJOR reset (weights & contexts)
[DEBUG] handlePhaseChange -> MAJOR reset (weights & contexts)
[DEBUG] handlePhaseChange -> MAJOR reset (weights & contexts)
[DEBUG] handlePhaseChange -> MAJOR reset (weights & contexts)
[DEBUG] handlePhaseChange -> MAJOR reset (weights & contexts)
[DEBUG] handlePhaseChange -> MAJOR reset (weights & contexts)
[DEBUG] handlePhaseChange -> MAJOR reset (weights & contexts)
[DEBUG] handlePhaseChange -> MAJOR reset (weights & contexts)
[DEBUG] handlePhaseChange -> MAJOR reset (weights & contexts)
[DEBUG] handlePhaseChange -> MAJOR reset (weights & contexts)
[DEBUG] handlePhaseChange -> MAJOR reset (weights & contexts)
[DEBUG] handlePhaseChange -> MAJOR reset (weights & contexts)
[DEBUG] handlePhaseChange -> MAJOR reset (weights & contexts)
[DEBUG] handlePhaseChange -> MAJOR reset (weights & contexts)
[DEBUG] handlePhaseChange -> MAJOR reset (weights & contexts)
[DEBUG] handlePhaseChange -> MAJOR reset (weights & contexts)
[DEBUG] handlePhaseChange -> MAJOR reset (weights & contexts)
[DEBUG] handlePhaseChange -> MAJOR reset (weights & contexts)
[DEBUG] handlePhaseChange -> MAJOR reset (weights & contexts)
[DEBUG] handlePhaseChange -> MAJOR reset (weights & contexts)
[DEBUG] handlePhaseChange -> MAJOR reset (weights & contexts)
[DEBUG] handlePhaseChange -> MAJOR reset (weights & contexts)
[DEBUG] handlePhaseChange -> MAJOR reset (weights & contexts)
[DEBUG] handlePhaseChange -> MAJOR reset (weights & contexts)
[DEBUG] handlePhaseChange -> MAJOR reset (weights & contexts)
[DEBUG] handlePhaseChange -> MAJOR reset (weights & contexts)
[DEBUG] handlePhaseChange -> MAJOR reset (weights & contexts)
[DEBUG] handlePhaseChange -> MAJOR reset (weights & contexts)
[DEBUG] handlePhaseChange -> MAJOR reset (weights & contexts)
[DEBUG] handlePhaseChange -> MAJOR reset (weights & contexts)
[DEBUG] handlePhaseChange -> MAJOR reset (weights & contexts)
[DEBUG] handlePhaseChange -> MAJOR reset (weights & contexts)
[DEBUG] handlePhaseChange -> MAJOR reset (weights & contexts)
[DEBUG] handlePhaseChange -> MAJOR reset (weights & contexts)
[DEBUG] handlePhaseChange -> MAJOR reset (weights & contexts)
[DEBUG] handlePhaseChange -> MAJOR reset (weights & contexts)
[DEBUG] handlePhaseChange -> MAJOR reset (weights & contexts)
[DEBUG] handlePhaseChange -> MAJOR reset (weights & contexts)
[DEBUG] handlePhaseChange -> MAJOR reset (weights & contexts)
[DEBUG] handlePhaseChange -> MAJOR reset (weights & contexts)
[DEBUG] handlePhaseChange -> MAJOR reset (weights & contexts)
[DEBUG] handlePhaseChange -> MAJOR reset (weights & contexts)
[DEBUG] handlePhaseChange -> MAJOR reset (weights & contexts)
[DEBUG] handlePhaseChange -> MAJOR reset (weights & contexts)
[DEBUG] handlePhaseChange -> MAJOR reset (weights & contexts)
[DEBUG] handlePhaseChange -> MAJOR reset (weights & contexts)
[DEBUG] handlePhaseChange -> MAJOR reset (weights & contexts)
[DEBUG] handlePhaseChange -> MAJOR reset (weights & contexts)
[DEBUG] handlePhaseChange -> MAJOR reset (weights & contexts)
[DEBUG] handlePhaseChange -> MAJOR reset (weights & contexts)
[DEBUG] handlePhaseChange -> MAJOR reset (weights & contexts)
[DEBUG] handlePhaseChange -> MAJOR reset (weights & contexts)
[DEBUG] handlePhaseChange -> MAJOR reset (weights & contexts)
[DEBUG] handlePhaseChange -> MAJOR reset (weights & contexts)
[DEBUG] handlePhaseChange -> MAJOR reset (weights & contexts)
[DEBUG] handlePhaseChange -> MAJOR reset (weights & contexts)
[DEBUG] handlePhaseChange -> MAJOR reset (weights & contexts)
[DEBUG] handlePhaseChange -> MAJOR reset (weights & contexts)
[DEBUG] handlePhaseChange -> MAJOR reset (weights & contexts)
[DEBUG] handlePhaseChange -> MAJOR reset (weights & contexts)
[DEBUG] handlePhaseChange -> MAJOR reset (weights & contexts)
[DEBUG] handlePhaseChange -> MAJOR reset (weights & contexts)
[DEBUG] handlePhaseChange -> MAJOR reset (weights & contexts)
[DEBUG] handlePhaseChange -> MAJOR reset (weights & contexts)
[DEBUG] handlePhaseChange -> MAJOR reset (weights & contexts)
[DEBUG] handlePhaseChange -> MAJOR reset (weights & contexts)
[DEBUG] handlePhaseChange -> MAJOR reset (weights & contexts)
[DEBUG] handlePhaseChange -> MAJOR reset (weights & contexts)
[DEBUG] handlePhaseChange -> MAJOR reset (weights & contexts)
[DEBUG] handlePhaseChange -> MAJOR reset (weights & contexts)
[DEBUG] handlePhaseChange -> MAJOR reset (weights & contexts)
[DEBUG] handlePhaseChange -> MAJOR reset (weights & contexts)
[DEBUG] handlePhaseChange -> MAJOR reset (weights & contexts)
[DEBUG] handlePhaseChange -> MAJOR reset (weights & contexts)
[DEBUG] handlePhaseChange -> MAJOR reset (weights & contexts)
[DEBUG] handlePhaseChange -> MAJOR reset (weights & contexts)
[DEBUG] handlePhaseChange -> MAJOR reset (weights & contexts)
[DEBUG] handlePhaseChange -> MAJOR reset (weights & contexts)
[DEBUG] handlePhaseChange -> MAJOR reset (weights & contexts)
[DEBUG] handlePhaseChange -> MAJOR reset (weights & contexts)
[DEBUG] handlePhaseChange -> MAJOR reset (weights & contexts)
[DEBUG] handlePhaseChange -> MAJOR reset (weights & contexts)
[DEBUG] handlePhaseChange -> MAJOR reset (weights & contexts)
[DEBUG] handlePhaseChange -> MAJOR reset (weights & contexts)
[DEBUG] handlePhaseChange -> MAJOR reset (weights & contexts)
[DEBUG] handlePhaseChange -> MAJOR reset (weights & contexts)
[DEBUG] handlePhaseChange -> MAJOR reset (weights & contexts)
[DEBUG] handlePhaseChange -> MAJOR reset (weights & contexts)
[DEBUG] handlePhaseChange -> MAJOR reset (weights & contexts)
[DEBUG] handlePhaseChange -> MAJOR reset (weights & contexts)
[DEBUG] handlePhaseChange -> MAJOR reset (weights & contexts)
[DEBUG] handlePhaseChange -> MAJOR reset (weights & contexts)
[DEBUG] handlePhaseChange -> MAJOR reset (weights & contexts)
[DEBUG] handlePhaseChange -> MAJOR reset (weights & contexts)
[DEBUG] handlePhaseChange -> MAJOR reset (weights & contexts)
[DEBUG] handlePhaseChange -> MAJOR reset (weights & contexts)
[DEBUG] handlePhaseChange -> MAJOR reset (weights & contexts)
[DEBUG] handlePhaseChange -> MAJOR reset (weights & contexts)
[DEBUG] handlePhaseChange -> MAJOR reset (weights & contexts)
[DEBUG] handlePhaseChange -> MAJOR reset (weights & contexts)
[DEBUG] handlePhaseChange -> MAJOR reset (weights & contexts)
[DEBUG] handlePhaseChange -> MAJOR reset (weights & contexts)
[DEBUG] handlePhaseChange -> MAJOR reset (weights & contexts)
[DEBUG] handlePhaseChange -> MAJOR reset (weights & contexts)
[DEBUG] handlePhaseChange -> MAJOR reset (weights & contexts)
[DEBUG] handlePhaseChange -> MAJOR reset (weights & contexts)
[DEBUG] handlePhaseChange -> MAJOR reset (weights & contexts)
[DEBUG] handlePhaseChange -> MAJOR reset (weights & contexts)
[DEBUG] handlePhaseChange -> MAJOR reset (weights & contexts)
[DEBUG] handlePhaseChange -> MAJOR reset (weights & contexts)
[DEBUG] handlePhaseChange -> MAJOR reset (weights & contexts)
[DEBUG] handlePhaseChange -> MAJOR reset (weights & contexts)
[DEBUG] handlePhaseChange -> MAJOR reset (weights & contexts)
[DEBUG] handlePhaseChange -> MAJOR reset (weights & contexts)
[DEBUG] handlePhaseChange -> MAJOR reset (weights & contexts)
[DEBUG] handlePhaseChange -> MAJOR reset (weights & contexts)
[DEBUG] handlePhaseChange -> MAJOR reset (weights & contexts)
[DEBUG] handlePhaseChange -> MAJOR reset (weights & contexts)
[DEBUG] handlePhaseChange -> MAJOR reset (weights & contexts)
[DEBUG] handlePhaseChange -> MAJOR reset (weights & contexts)
[DEBUG] handlePhaseChange -> MAJOR reset (weights & contexts)
[DEBUG] handlePhaseChange -> MAJOR reset (weights & contexts)
[DEBUG] handlePhaseChange -> MAJOR reset (weights & contexts)
[DEBUG] handlePhaseChange -> MAJOR reset (weights & contexts)
[DEBUG] handlePhaseChange -> MAJOR reset (weights & contexts)
[DEBUG] handlePhaseChange -> MAJOR reset (weights & contexts)
[DEBUG] handlePhaseChange -> MAJOR reset (weights & contexts)
[DEBUG] handlePhaseChange -> MAJOR reset (weights & contexts)
[DEBUG] handlePhaseChange -> MAJOR reset (weights & contexts)
[DEBUG] handlePhaseChange -> MAJOR reset (weights & contexts)
[DEBUG] handlePhaseChange -> MAJOR reset (weights & contexts)
[DEBUG] handlePhaseChange -> MAJOR reset (weights & contexts)
[DEBUG] handlePhaseChange -> MAJOR reset (weights & contexts)
[DEBUG] handlePhaseChange -> MAJOR reset (weights & contexts)
[DEBUG] handlePhaseChange -> MAJOR reset (weights & contexts)
[DEBUG] handlePhaseChange -> MAJOR reset (weights & contexts)
[DEBUG] handlePhaseChange -> MAJOR reset (weights & contexts)
[DEBUG] handlePhaseChange -> MAJOR reset (weights & contexts)
[DEBUG] handlePhaseChange -> MAJOR reset (weights & contexts)
[DEBUG] handlePhaseChange -> MAJOR reset (weights & contexts)
[DEBUG] handlePhaseChange -> MAJOR reset (weights & contexts)
[DEBUG] handlePhaseChange -> MAJOR reset (weights & contexts)
[DEBUG] handlePhaseChange -> MAJOR reset (weights & contexts)
[DEBUG] handlePhaseChange -> MAJOR reset (weights & contexts)
[DEBUG] handlePhaseChange -> MAJOR reset (weights & contexts)
[DEBUG] handlePhaseChange -> MAJOR reset (weights & contexts)
[DEBUG] handlePhaseChange -> MAJOR reset (weights & contexts)
[DEBUG] handlePhaseChange -> MAJOR reset (weights & contexts)
[DEBUG] handlePhaseChange -> MAJOR reset (weights & contexts)
[DEBUG] handlePhaseChange -> MAJOR reset (weights & contexts)
[DEBUG] handlePhaseChange -> MAJOR reset (weights & contexts)
[DEBUG] handlePhaseChange -> MAJOR reset (weights & contexts)
[DEBUG] handlePhaseChange -> MAJOR reset (weights & contexts)
[DEBUG] handlePhaseChange -> MAJOR reset (weights & contexts)
[DEBUG] handlePhaseChange -> MAJOR reset (weights & contexts)
[DEBUG] handlePhaseChange -> MAJOR reset (weights & contexts)
[DEBUG] handlePhaseChange -> MAJOR reset (weights & contexts)
[DEBUG] handlePhaseChange -> MAJOR reset (weights & contexts)
[DEBUG] handlePhaseChange -> MAJOR reset (weights & contexts)
[DEBUG] handlePhaseChange -> MAJOR reset (weights & contexts)
[DEBUG] handlePhaseChange -> MAJOR reset (weights & contexts)
[DEBUG] handlePhaseChange -> MAJOR reset (weights & contexts)
[DEBUG] handlePhaseChange -> MAJOR reset (weights & contexts)
[DEBUG] handlePhaseChange -> MAJOR reset (weights & contexts)
[DEBUG] handlePhaseChange -> MAJOR reset (weights & contexts)
[DEBUG] handlePhaseChange -> MAJOR reset (weights & contexts)
[DEBUG] handlePhaseChange -> MAJOR reset (weights & contexts)
[DEBUG] handlePhaseChange -> MAJOR reset (weights & contexts)
[DEBUG] handlePhaseChange -> MAJOR reset (weights & contexts)
[DEBUG] handlePhaseChange -> MAJOR reset (weights & contexts)
[DEBUG] handlePhaseChange -> MAJOR reset (weights & contexts)
[DEBUG] handlePhaseChange -> MAJOR reset (weights & contexts)
[DEBUG] handlePhaseChange -> MAJOR reset (weights & contexts)
[DEBUG] handlePhaseChange -> MAJOR reset (weights & contexts)
[DEBUG] handlePhaseChange -> MAJOR reset (weights & contexts)
[DEBUG] handlePhaseChange -> MAJOR reset (weights & contexts)
[DEBUG] handlePhaseChange -> MAJOR reset (weights & contexts)
[DEBUG] handlePhaseChange -> MAJOR reset (weights & contexts)
[DEBUG] handlePhaseChange -> MAJOR reset (weights & contexts)
[DEBUG] handlePhaseChange -> MAJOR reset (weights & contexts)
[DEBUG] handlePhaseChange -> MAJOR reset (weights & contexts)
[DEBUG] handlePhaseChange -> MAJOR reset (weights & contexts)
[DEBUG] handlePhaseChange -> MAJOR reset (weights & contexts)
[DEBUG] handlePhaseChange -> MAJOR reset (weights & contexts)
[DEBUG] handlePhaseChange -> MAJOR reset (weights & contexts)
[DEBUG] handlePhaseChange -> MAJOR reset (weights & contexts)
[DEBUG] handlePhaseChange -> MAJOR reset (weights & contexts)
[DEBUG] handlePhaseChange -> MAJOR reset (weights & contexts)
[DEBUG] handlePhaseChange -> MAJOR reset (weights & contexts)
[DEBUG] handlePhaseChange -> MAJOR reset (weights & contexts)
[DEBUG] handlePhaseChange -> MAJOR reset (weights & contexts)
[DEBUG] handlePhaseChange -> MAJOR reset (weights & contexts)
[DEBUG] handlePhaseChange -> MAJOR reset (weights & contexts)
[DEBUG] handlePhaseChange -> MAJOR reset (weights & contexts)
[DEBUG] handlePhaseChange -> MAJOR reset (weights & contexts)
[DEBUG] handlePhaseChange -> MAJOR reset (weights & contexts)
[DEBUG] handlePhaseChange -> MAJOR reset (weights & contexts)
[DEBUG] handlePhaseChange -> MAJOR reset (weights & contexts)
[DEBUG] handlePhaseChange -> MAJOR reset (weights & contexts)
[DEBUG] handlePhaseChange -> MAJOR reset (weights & contexts)
[DEBUG] handlePhaseChange -> MAJOR reset (weights & contexts)
[DEBUG] handlePhaseChange -> MAJOR reset (weights & contexts)
[DEBUG] handlePhaseChange -> MAJOR reset (weights & contexts)
[DEBUG] handlePhaseChange -> MAJOR reset (weights & contexts)
[DEBUG] handlePhaseChange -> MAJOR reset (weights & contexts)
[DEBUG] handlePhaseChange -> MAJOR reset (weights & contexts)
[DEBUG] handlePhaseChange -> MAJOR reset (weights & contexts)
[DEBUG] handlePhaseChange -> MAJOR reset (weights & contexts)
[DEBUG] handlePhaseChange -> MAJOR reset (weights & contexts)
[DEBUG] handlePhaseChange -> MAJOR reset (weights & contexts)
[DEBUG] handlePhaseChange -> MAJOR reset (weights & contexts)
[DEBUG] handlePhaseChange -> MAJOR reset (weights & contexts)
[DEBUG] handlePhaseChange -> MAJOR reset (weights & contexts)
[DEBUG] handlePhaseChange -> MAJOR reset (weights & contexts)
[DEBUG] handlePhaseChange -> MAJOR reset (weights & contexts)
[DEBUG] handlePhaseChange -> MAJOR reset (weights & contexts)
[DEBUG] handlePhaseChange -> MAJOR reset (weights & contexts)
[DEBUG] handlePhaseChange -> MAJOR reset (weights & contexts)
[DEBUG] handlePhaseChange -> MAJOR reset (weights & contexts)
[DEBUG] handlePhaseChange -> MAJOR reset (weights & contexts)
[DEBUG] handlePhaseChange -> MAJOR reset (weights & contexts)
[DEBUG] handlePhaseChange -> MAJOR reset (weights & contexts)
[DEBUG] handlePhaseChange -> MAJOR reset (weights & contexts)
[DEBUG] handlePhaseChange -> MAJOR reset (weights & contexts)
[DEBUG] handlePhaseChange -> MAJOR reset (weights & contexts)
[DEBUG] handlePhaseChange -> MAJOR reset (weights & contexts)
[DEBUG] handlePhaseChange -> MAJOR reset (weights & contexts)
[DEBUG] handlePhaseChange -> MAJOR reset (weights & contexts)
[DEBUG] handlePhaseChange -> MAJOR reset (weights & contexts)
[DEBUG] handlePhaseChange -> MAJOR reset (weights & contexts)
[DEBUG] handlePhaseChange -> MAJOR reset (weights & contexts)
[DEBUG] handlePhaseChange -> MAJOR reset (weights & contexts)
[DEBUG] handlePhaseChange -> MAJOR reset (weights & contexts)
[DEBUG] handlePhaseChange -> MAJOR reset (weights & contexts)
[DEBUG] handlePhaseChange -> MAJOR reset (weights & contexts)
[DEBUG] handlePhaseChange -> MAJOR reset (weights & contexts)
[DEBUG] handlePhaseChange -> MAJOR reset (weights & contexts)
[DEBUG] handlePhaseChange -> MAJOR reset (weights & contexts)
[DEBUG] handlePhaseChange -> MAJOR reset (weights & contexts)
[DEBUG] handlePhaseChange -> MAJOR reset (weights & contexts)
[DEBUG] handlePhaseChange -> MAJOR reset (weights & contexts)
[DEBUG] handlePhaseChange -> MAJOR reset (weights & contexts)
[DEBUG] handlePhaseChange -> MAJOR reset (weights & contexts)
[DEBUG] handlePhaseChange -> MAJOR reset (weights & contexts)
[DEBUG] handlePhaseChange -> MAJOR reset (weights & contexts)
[DEBUG] handlePhaseChange -> MAJOR reset (weights & contexts)
[DEBUG] handlePhaseChange -> MAJOR reset (weights & contexts)
[DEBUG] handlePhaseChange -> MAJOR reset (weights & contexts)
[DEBUG] handlePhaseChange -> MAJOR reset (weights & contexts)
[DEBUG] handlePhaseChange -> MAJOR reset (weights & contexts)
[DEBUG] handlePhaseChange -> MAJOR reset (weights & contexts)
[DEBUG] handlePhaseChange -> MAJOR reset (weights & contexts)
[DEBUG] handlePhaseChange -> MAJOR reset (weights & contexts)
[DEBUG] handlePhaseChange -> MAJOR reset (weights & contexts)
[DEBUG] handlePhaseChange -> MAJOR reset (weights & contexts)
[DEBUG] handlePhaseChange -> MAJOR reset (weights & contexts)
[DEBUG] handlePhaseChange -> MAJOR reset (weights & contexts)
[DEBUG] handlePhaseChange -> MAJOR reset (weights & contexts)
[DEBUG] handlePhaseChange -> MAJOR reset (weights & contexts)
[DEBUG] handlePhaseChange -> MAJOR reset (weights & contexts)
[DEBUG] handlePhaseChange -> MAJOR reset (weights & contexts)
[DEBUG] handlePhaseChange -> MAJOR reset (weights & contexts)
[DEBUG] handlePhaseChange -> MAJOR reset (weights & contexts)
[DEBUG] handlePhaseChange -> MAJOR reset (weights & contexts)
[DEBUG] handlePhaseChange -> MAJOR reset (weights & contexts)
[DEBUG] handlePhaseChange -> MAJOR reset (weights & contexts)
[DEBUG] handlePhaseChange -> MAJOR reset (weights & contexts)
[DEBUG] handlePhaseChange -> MAJOR reset (weights & contexts)
[DEBUG] handlePhaseChange -> MAJOR reset (weights & contexts)
[DEBUG] handlePhaseChange -> MAJOR reset (weights & contexts)
[DEBUG] handlePhaseChange -> MAJOR reset (weights & contexts)
[DEBUG] handlePhaseChange -> MAJOR reset (weights & contexts)
[DEBUG] handlePhaseChange -> MAJOR reset (weights & contexts)
[DEBUG] handlePhaseChange -> MAJOR reset (weights & contexts)
[DEBUG] handlePhaseChange -> MAJOR reset (weights & contexts)
[DEBUG] handlePhaseChange -> MAJOR reset (weights & contexts)
[DEBUG] handlePhaseChange -> MAJOR reset (weights & contexts)
[DEBUG] handlePhaseChange -> MAJOR reset (weights & contexts)
[DEBUG] handlePhaseChange -> MAJOR reset (weights & contexts)
[DEBUG] handlePhaseChange -> MAJOR reset (weights & contexts)
[DEBUG] handlePhaseChange -> MAJOR reset (weights & contexts)
[DEBUG] handlePhaseChange -> MAJOR reset (weights & contexts)
[DEBUG] handlePhaseChange -> MAJOR reset (weights & contexts)
[DEBUG] handlePhaseChange -> MAJOR reset (weights & contexts)
[DEBUG] handlePhaseChange -> MAJOR reset (weights & contexts)
[DEBUG] handlePhaseChange -> MAJOR reset (weights & contexts)
[DEBUG] handlePhaseChange -> MAJOR reset (weights & contexts)
[DEBUG] handlePhaseChange -> MAJOR reset (weights & contexts)
[DEBUG] handlePhaseChange -> MAJOR reset (weights & contexts)
[DEBUG] handlePhaseChange -> MAJOR reset (weights & contexts)
[DEBUG] handlePhaseChange -> MAJOR reset (weights & contexts)
[DEBUG] handlePhaseChange -> MAJOR reset (weights & contexts)
[DEBUG] handlePhaseChange -> MAJOR reset (weights & contexts)
[DEBUG] handlePhaseChange -> MAJOR reset (weights & contexts)
[DEBUG] handlePhaseChange -> MAJOR reset (weights & contexts)
[DEBUG] handlePhaseChange -> MAJOR reset (weights & contexts)
[DEBUG] handlePhaseChange -> MAJOR reset (weights & contexts)
[DEBUG] handlePhaseChange -> MAJOR reset (weights & contexts)
[DEBUG] handlePhaseChange -> MAJOR reset (weights & contexts)
[DEBUG] handlePhaseChange -> MAJOR reset (weights & contexts)
[DEBUG] handlePhaseChange -> MAJOR reset (weights & contexts)
[DEBUG] handlePhaseChange -> MAJOR reset (weights & contexts)
[DEBUG] handlePhaseChange -> MAJOR reset (weights & contexts)
[DEBUG] handlePhaseChange -> MAJOR reset (weights & contexts)
[DEBUG] handlePhaseChange -> MAJOR reset (weights & contexts)
[DEBUG] handlePhaseChange -> MAJOR reset (weights & contexts)
[DEBUG] handlePhaseChange -> MAJOR reset (weights & contexts)
[DEBUG] handlePhaseChange -> MAJOR reset (weights & contexts)
[DEBUG] handlePhaseChange -> MAJOR reset (weights & contexts)
[DEBUG] handlePhaseChange -> MAJOR reset (weights & contexts)
[DEBUG] handlePhaseChange -> MAJOR reset (weights & contexts)
[DEBUG] handlePhaseChange -> MAJOR reset (weights & contexts)
[DEBUG] handlePhaseChange -> MAJOR reset (weights & contexts)
[DEBUG] handlePhaseChange -> MAJOR reset (weights & contexts)
[DEBUG] handlePhaseChange -> MAJOR reset (weights & contexts)
[DEBUG] handlePhaseChange -> MAJOR reset (weights & contexts)
[DEBUG] handlePhaseChange -> MAJOR reset (weights & contexts)
[DEBUG] handlePhaseChange -> MAJOR reset (weights & contexts)
[DEBUG] handlePhaseChange -> MAJOR reset (weights & contexts)
[DEBUG] handlePhaseChange -> MAJOR reset (weights & contexts)
[DEBUG] handlePhaseChange -> MAJOR reset (weights & contexts)
[DEBUG] handlePhaseChange -> MAJOR reset (weights & contexts)
[DEBUG] handlePhaseChange -> MAJOR reset (weights & contexts)
[DEBUG] handlePhaseChange -> MAJOR reset (weights & contexts)
[DEBUG] handlePhaseChange -> MAJOR reset (weights & contexts)
[DEBUG] handlePhaseChange -> MAJOR reset (weights & contexts)
[DEBUG] handlePhaseChange -> MAJOR reset (weights & contexts)
[DEBUG] handlePhaseChange -> MAJOR reset (weights & contexts)
[DEBUG] handlePhaseChange -> MAJOR reset (weights & contexts)
[DEBUG] handlePhaseChange -> MAJOR reset (weights & contexts)
[DEBUG] handlePhaseChange -> MAJOR reset (weights & contexts)
[DEBUG] handlePhaseChange -> MAJOR reset (weights & contexts)
[DEBUG] handlePhaseChange -> MAJOR reset (weights & contexts)
[DEBUG] handlePhaseChange -> MAJOR reset (weights & contexts)
[DEBUG] handlePhaseChange -> MAJOR reset (weights & contexts)
[DEBUG] handlePhaseChange -> MAJOR reset (weights & contexts)
[DEBUG] handlePhaseChange -> MAJOR reset (weights & contexts)
[DEBUG] handlePhaseChange -> MAJOR reset (weights & contexts)
[DEBUG] handlePhaseChange -> MAJOR reset (weights & contexts)
[DEBUG] handlePhaseChange -> MAJOR reset (weights & contexts)
[DEBUG] handlePhaseChange -> MAJOR reset (weights & contexts)
[DEBUG] handlePhaseChange -> MAJOR reset (weights & contexts)
[DEBUG] handlePhaseChange -> MAJOR reset (weights & contexts)
[DEBUG] handlePhaseChange -> MAJOR reset (weights & contexts)
[DEBUG] handlePhaseChange -> MAJOR reset (weights & contexts)
[DEBUG] handlePhaseChange -> MAJOR reset (weights & contexts)
[DEBUG] handlePhaseChange -> MAJOR reset (weights & contexts)
[DEBUG] handlePhaseChange -> MAJOR reset (weights & contexts)
[DEBUG] handlePhaseChange -> MAJOR reset (weights & contexts)
[DEBUG] handlePhaseChange -> MAJOR reset (weights & contexts)
[DEBUG] handlePhaseChange -> MAJOR reset (weights & contexts)
[DEBUG] handlePhaseChange -> MAJOR reset (weights & contexts)
[DEBUG] handlePhaseChange -> MAJOR reset (weights & contexts)
[DEBUG] handlePhaseChange -> MAJOR reset (weights & contexts)
[DEBUG] handlePhaseChange -> MAJOR reset (weights & contexts)
[DEBUG] handlePhaseChange -> MAJOR reset (weights & contexts)
[DEBUG] handlePhaseChange -> MAJOR reset (weights & contexts)
[DEBUG] handlePhaseChange -> MAJOR reset (weights & contexts)
[DEBUG] handlePhaseChange -> MAJOR reset (weights & contexts)
[DEBUG] handlePhaseChange -> MAJOR reset (weights & contexts)
[DEBUG] handlePhaseChange -> MAJOR reset (weights & contexts)
[DEBUG] handlePhaseChange -> MAJOR reset (weights & contexts)
[DEBUG] handlePhaseChange -> MAJOR reset (weights & contexts)
[DEBUG] handlePhaseChange -> MAJOR reset (weights & contexts)
[DEBUG] handlePhaseChange -> MAJOR reset (weights & contexts)
[DEBUG] handlePhaseChange -> MAJOR reset (weights & contexts)
[DEBUG] handlePhaseChange -> MAJOR reset (weights & contexts)
[DEBUG] handlePhaseChange -> MAJOR reset (weights & contexts)
[DEBUG] handlePhaseChange -> MAJOR reset (weights & contexts)
[DEBUG] handlePhaseChange -> MAJOR reset (weights & contexts)
[DEBUG] handlePhaseChange -> MAJOR reset (weights & contexts)
[DEBUG] handlePhaseChange -> MAJOR reset (weights & contexts)
[DEBUG] handlePhaseChange -> MAJOR reset (weights & contexts)
[DEBUG] handlePhaseChange -> MAJOR reset (weights & contexts)
[DEBUG] handlePhaseChange -> MAJOR reset (weights & contexts)
[DEBUG] handlePhaseChange -> MAJOR reset (weights & contexts)
[DEBUG] handlePhaseChange -> MAJOR reset (weights & contexts)
[DEBUG] handlePhaseChange -> MAJOR reset (weights & contexts)
[DEBUG] handlePhaseChange -> MAJOR reset (weights & contexts)
[DEBUG] handlePhaseChange -> MAJOR reset (weights & contexts)
[DEBUG] handlePhaseChange -> MAJOR reset (weights & contexts)
[DEBUG] handlePhaseChange -> MAJOR reset (weights & contexts)
[DEBUG] handlePhaseChange -> MAJOR reset (weights & contexts)
[DEBUG] handlePhaseChange -> MAJOR reset (weights & contexts)
[DEBUG] handlePhaseChange -> MAJOR reset (weights & contexts)
[DEBUG] handlePhaseChange -> MAJOR reset (weights & contexts)
[DEBUG] handlePhaseChange -> MAJOR reset (weights & contexts)
[DEBUG] handlePhaseChange -> MAJOR reset (weights & contexts)
[DEBUG] handlePhaseChange -> MAJOR reset (weights & contexts)
[DEBUG] handlePhaseChange -> MAJOR reset (weights & contexts)
[DEBUG] handlePhaseChange -> MAJOR reset (weights & contexts)
[DEBUG] handlePhaseChange -> MAJOR reset (weights & contexts)
[DEBUG] handlePhaseChange -> MAJOR reset (weights & contexts)
[DEBUG] handlePhaseChange -> MAJOR reset (weights & contexts)
[DEBUG] handlePhaseChange -> MAJOR reset (weights & contexts)
[DEBUG] handlePhaseChange -> MAJOR reset (weights & contexts)
[DEBUG] handlePhaseChange -> MAJOR reset (weights & contexts)
[DEBUG] handlePhaseChange -> MAJOR reset (weights & contexts)
[DEBUG] handlePhaseChange -> MAJOR reset (weights & contexts)
[DEBUG] handlePhaseChange -> MAJOR reset (weights & contexts)
[DEBUG] handlePhaseChange -> MAJOR reset (weights & contexts)
[DEBUG] handlePhaseChange -> MAJOR reset (weights & contexts)
[DEBUG] handlePhaseChange -> MAJOR reset (weights & contexts)
[DEBUG] handlePhaseChange -> MAJOR reset (weights & contexts)
[DEBUG] handlePhaseChange -> MAJOR reset (weights & contexts)
[DEBUG] handlePhaseChange -> MAJOR reset (weights & contexts)
[DEBUG] handlePhaseChange -> MAJOR reset (weights & contexts)
[DEBUG] handlePhaseChange -> MAJOR reset (weights & contexts)
[DEBUG] handlePhaseChange -> MAJOR reset (weights & contexts)
[DEBUG] handlePhaseChange -> MAJOR reset (weights & contexts)
[DEBUG] handlePhaseChange -> MAJOR reset (weights & contexts)
[DEBUG] handlePhaseChange -> MAJOR reset (weights & contexts)
[DEBUG] handlePhaseChange -> MAJOR reset (weights & contexts)
[DEBUG] handlePhaseChange -> MAJOR reset (weights & contexts)
[DEBUG] handlePhaseChange -> MAJOR reset (weights & contexts)
[DEBUG] handlePhaseChange -> MAJOR reset (weights & contexts)
[DEBUG] handlePhaseChange -> MAJOR reset (weights & contexts)
[DEBUG] handlePhaseChange -> MAJOR reset (weights & contexts)
[DEBUG] handlePhaseChange -> MAJOR reset (weights & contexts)
[DEBUG] handlePhaseChange -> MAJOR reset (weights & contexts)
[DEBUG] handlePhaseChange -> MAJOR reset (weights & contexts)
[DEBUG] handlePhaseChange -> MAJOR reset (weights & contexts)
[DEBUG] handlePhaseChange -> MAJOR reset (weights & contexts)
[DEBUG] handlePhaseChange -> MAJOR reset (weights & contexts)
[DEBUG] handlePhaseChange -> MAJOR reset (weights & contexts)
[DEBUG] handlePhaseChange -> MAJOR reset (weights & contexts)
[DEBUG] handlePhaseChange -> MAJOR reset (weights & contexts)
[DEBUG] handlePhaseChange -> MAJOR reset (weights & contexts)
[DEBUG] handlePhaseChange -> MAJOR reset (weights & contexts)
[DEBUG] handlePhaseChange -> MAJOR reset (weights & contexts)
[DEBUG] handlePhaseChange -> MAJOR reset (weights & contexts)
[DEBUG] handlePhaseChange -> MAJOR reset (weights & contexts)
[DEBUG] handlePhaseChange -> MAJOR reset (weights & contexts)
[DEBUG] handlePhaseChange -> MAJOR reset (weights & contexts)
[DEBUG] handlePhaseChange -> MAJOR reset (weights & contexts)
[DEBUG] handlePhaseChange -> MAJOR reset (weights & contexts)
[DEBUG] handlePhaseChange -> MAJOR reset (weights & contexts)
[DEBUG] handlePhaseChange -> MAJOR reset (weights & contexts)
[DEBUG] handlePhaseChange -> MAJOR reset (weights & contexts)
[DEBUG] handlePhaseChange -> MAJOR reset (weights & contexts)
[DEBUG] handlePhaseChange -> MAJOR reset (weights & contexts)
[DEBUG] handlePhaseChange -> MAJOR reset (weights & contexts)
[DEBUG] handlePhaseChange -> MAJOR reset (weights & contexts)
[DEBUG] handlePhaseChange -> MAJOR reset (weights & contexts)
[DEBUG] handlePhaseChange -> MAJOR reset (weights & contexts)
[DEBUG] handlePhaseChange -> MAJOR reset (weights & contexts)
[DEBUG] handlePhaseChange -> MAJOR reset (weights & contexts)
[DEBUG] handlePhaseChange -> MAJOR reset (weights & contexts)
[DEBUG] handlePhaseChange -> MAJOR reset (weights & contexts)
[DEBUG] handlePhaseChange -> MAJOR reset (weights & contexts)
[DEBUG] handlePhaseChange -> MAJOR reset (weights & contexts)
[DEBUG] handlePhaseChange -> MAJOR reset (weights & contexts)
[DEBUG] handlePhaseChange -> MAJOR reset (weights & contexts)
[DEBUG] handlePhaseChange -> MAJOR reset (weights & contexts)
[DEBUG] handlePhaseChange -> MAJOR reset (weights & contexts)
[DEBUG] handlePhaseChange -> MAJOR reset (weights & contexts)
[DEBUG] handlePhaseChange -> MAJOR reset (weights & contexts)
[DEBUG] handlePhaseChange -> MAJOR reset (weights & contexts)
[DEBUG] handlePhaseChange -> MAJOR reset (weights & contexts)
[DEBUG] handlePhaseChange -> MAJOR reset (weights & contexts)
[DEBUG] handlePhaseChange -> MAJOR reset (weights & contexts)
[DEBUG] handlePhaseChange -> MAJOR reset (weights & contexts)
[DEBUG] handlePhaseChange -> MAJOR reset (weights & contexts)
[DEBUG] handlePhaseChange -> MAJOR reset (weights & contexts)
[DEBUG] handlePhaseChange -> MAJOR reset (weights & contexts)
[DEBUG] handlePhaseChange -> MAJOR reset (weights & contexts)
[DEBUG] handlePhaseChange -> MAJOR reset (weights & contexts)
[DEBUG] handlePhaseChange -> MAJOR reset (weights & contexts)
[DEBUG] handlePhaseChange -> MAJOR reset (weights & contexts)
[DEBUG] handlePhaseChange -> MAJOR reset (weights & contexts)
[DEBUG] handlePhaseChange -> MAJOR reset (weights & contexts)
[DEBUG] handlePhaseChange -> MAJOR reset (weights & contexts)
[DEBUG] handlePhaseChange -> MAJOR reset (weights & contexts)
[DEBUG] handlePhaseChange -> MAJOR reset (weights & contexts)
[DEBUG] handlePhaseChange -> MAJOR reset (weights & contexts)
[DEBUG] handlePhaseChange -> MAJOR reset (weights & contexts)
[DEBUG] handlePhaseChange -> MAJOR reset (weights & contexts)
[DEBUG] handlePhaseChange -> MAJOR reset (weights & contexts)
[DEBUG] handlePhaseChange -> MAJOR reset (weights & contexts)
[DEBUG] handlePhaseChange -> MAJOR reset (weights & contexts)
[DEBUG] handlePhaseChange -> MAJOR reset (weights & contexts)
[DEBUG] handlePhaseChange -> MAJOR reset (weights & contexts)
[DEBUG] handlePhaseChange -> MAJOR reset (weights & contexts)
[DEBUG] handlePhaseChange -> MAJOR reset (weights & contexts)
[DEBUG] handlePhaseChange -> MAJOR reset (weights & contexts)
[DEBUG] handlePhaseChange -> MAJOR reset (weights & contexts)
[DEBUG] handlePhaseChange -> MAJOR reset (weights & contexts)
[DEBUG] handlePhaseChange -> MAJOR reset (weights & contexts)
[DEBUG] handlePhaseChange -> MAJOR reset (weights & contexts)
[DEBUG] handlePhaseChange -> MAJOR reset (weights & contexts)
[DEBUG] handlePhaseChange -> MAJOR reset (weights & contexts)
[DEBUG] handlePhaseChange -> MAJOR reset (weights & contexts)
[DEBUG] handlePhaseChange -> MAJOR reset (weights & contexts)
[DEBUG] handlePhaseChange -> MAJOR reset (weights & contexts)
[DEBUG] handlePhaseChange -> MAJOR reset (weights & contexts)
[DEBUG] handlePhaseChange -> MAJOR reset (weights & contexts)
[DEBUG] handlePhaseChange -> MAJOR reset (weights & contexts)
[DEBUG] handlePhaseChange -> MAJOR reset (weights & contexts)
[DEBUG] handlePhaseChange -> MAJOR reset (weights & contexts)
[DEBUG] handlePhaseChange -> MAJOR reset (weights & contexts)
[DEBUG] handlePhaseChange -> MAJOR reset (weights & contexts)
[DEBUG] handlePhaseChange -> MAJOR reset (weights & contexts)
[DEBUG] handlePhaseChange -> MAJOR reset (weights & contexts)
[DEBUG] handlePhaseChange -> MAJOR reset (weights & contexts)
[DEBUG] handlePhaseChange -> MAJOR reset (weights & contexts)
[DEBUG] handlePhaseChange -> MAJOR reset (weights & contexts)
[DEBUG] handlePhaseChange -> MAJOR reset (weights & contexts)
[DEBUG] handlePhaseChange -> MAJOR reset (weights & contexts)
[DEBUG] handlePhaseChange -> MAJOR reset (weights & contexts)
[DEBUG] handlePhaseChange -> MAJOR reset (weights & contexts)
[DEBUG] handlePhaseChange -> MAJOR reset (weights & contexts)
[DEBUG] handlePhaseChange -> MAJOR reset (weights & contexts)
[DEBUG] handlePhaseChange -> MAJOR reset (weights & contexts)
[DEBUG] handlePhaseChange -> MAJOR reset (weights & contexts)
[DEBUG] handlePhaseChange -> MAJOR reset (weights & contexts)
[DEBUG] handlePhaseChange -> MAJOR reset (weights & contexts)
[DEBUG] handlePhaseChange -> MAJOR reset (weights & contexts)
[DEBUG] handlePhaseChange -> MAJOR reset (weights & contexts)
[DEBUG] handlePhaseChange -> MAJOR reset (weights & contexts)
[DEBUG] handlePhaseChange -> MAJOR reset (weights & contexts)
[DEBUG] handlePhaseChange -> MAJOR reset (weights & contexts)
[DEBUG] handlePhaseChange -> MAJOR reset (weights & contexts)
[DEBUG] handlePhaseChange -> MAJOR reset (weights & contexts)
[DEBUG] handlePhaseChange -> MAJOR reset (weights & contexts)
[DEBUG] handlePhaseChange -> MAJOR reset (weights & contexts)
[DEBUG] handlePhaseChange -> MAJOR reset (weights & contexts)
[DEBUG] handlePhaseChange -> MAJOR reset (weights & contexts)
[DEBUG] handlePhaseChange -> MAJOR reset (weights & contexts)
[DEBUG] handlePhaseChange -> MAJOR reset (weights & contexts)
[DEBUG] handlePhaseChange -> MAJOR reset (weights & contexts)
[DEBUG] handlePhaseChange -> MAJOR reset (weights & contexts)
[DEBUG] handlePhaseChange -> MAJOR reset (weights & contexts)
[DEBUG] handlePhaseChange -> MAJOR reset (weights & contexts)
[DEBUG] handlePhaseChange -> MAJOR reset (weights & contexts)
[DEBUG] handlePhaseChange -> MAJOR reset (weights & contexts)
[DEBUG] handlePhaseChange -> MAJOR reset (weights & contexts)
[DEBUG] handlePhaseChange -> MAJOR reset (weights & contexts)
[DEBUG] handlePhaseChange -> MAJOR reset (weights & contexts)
[DEBUG] handlePhaseChange -> MAJOR reset (weights & contexts)
[DEBUG] handlePhaseChange -> MAJOR reset (weights & contexts)
[DEBUG] handlePhaseChange -> MAJOR reset (weights & contexts)
[DEBUG] handlePhaseChange -> MAJOR reset (weights & contexts)
[DEBUG] handlePhaseChange -> MAJOR reset (weights & contexts)
[DEBUG] handlePhaseChange -> MAJOR reset (weights & contexts)
[DEBUG] handlePhaseChange -> MAJOR reset (weights & contexts)
[DEBUG] handlePhaseChange -> MAJOR reset (weights & contexts)
[DEBUG] handlePhaseChange -> MAJOR reset (weights & contexts)
[DEBUG] handlePhaseChange -> MAJOR reset (weights & contexts)
[DEBUG] handlePhaseChange -> MAJOR reset (weights & contexts)
[DEBUG] handlePhaseChange -> MAJOR reset (weights & contexts)
[DEBUG] handlePhaseChange -> MAJOR reset (weights & contexts)
[DEBUG] handlePhaseChange -> MAJOR reset (weights & contexts)
[DEBUG] handlePhaseChange -> MAJOR reset (weights & contexts)
[DEBUG] handlePhaseChange -> MAJOR reset (weights & contexts)
[DEBUG] handlePhaseChange -> MAJOR reset (weights & contexts)
[DEBUG] handlePhaseChange -> MAJOR reset (weights & contexts)
[DEBUG] handlePhaseChange -> MAJOR reset (weights & contexts)
[DEBUG] handlePhaseChange -> MAJOR reset (weights & contexts)
[DEBUG] handlePhaseChange -> MAJOR reset (weights & contexts)
[DEBUG] handlePhaseChange -> MAJOR reset (weights & contexts)
[DEBUG] handlePhaseChange -> MAJOR reset (weights & contexts)
[DEBUG] handlePhaseChange -> MAJOR reset (weights & contexts)
[DEBUG] handlePhaseChange -> MAJOR reset (weights & contexts)
[DEBUG] handlePhaseChange -> MAJOR reset (weights & contexts)
[DEBUG] handlePhaseChange -> MAJOR reset (weights & contexts)
[DEBUG] handlePhaseChange -> MAJOR reset (weights & contexts)
[DEBUG] handlePhaseChange -> MAJOR reset (weights & contexts)
[DEBUG] handlePhaseChange -> MAJOR reset (weights & contexts)
[DEBUG] handlePhaseChange -> MAJOR reset (weights & contexts)
[DEBUG] handlePhaseChange -> MAJOR reset (weights & contexts)
[DEBUG] handlePhaseChange -> MAJOR reset (weights & contexts)
[DEBUG] handlePhaseChange -> MAJOR reset (weights & contexts)
[DEBUG] handlePhaseChange -> MAJOR reset (weights & contexts)
[DEBUG] handlePhaseChange -> MAJOR reset (weights & contexts)
[DEBUG] handlePhaseChange -> MAJOR reset (weights & contexts)
[DEBUG] handlePhaseChange -> MAJOR reset (weights & contexts)
[DEBUG] handlePhaseChange -> MAJOR reset (weights & contexts)
[DEBUG] handlePhaseChange -> MAJOR reset (weights & contexts)
[DEBUG] handlePhaseChange -> MAJOR reset (weights & contexts)
[DEBUG] handlePhaseChange -> MAJOR reset (weights & contexts)
[DEBUG] handlePhaseChange -> MAJOR reset (weights & contexts)
[DEBUG] handlePhaseChange -> MAJOR reset (weights & contexts)
[DEBUG] handlePhaseChange -> MAJOR reset (weights & contexts)
[DEBUG] handlePhaseChange -> MAJOR reset (weights & contexts)
[DEBUG] handlePhaseChange -> MAJOR reset (weights & contexts)
[DEBUG] handlePhaseChange -> MAJOR reset (weights & contexts)
[DEBUG] handlePhaseChange -> MAJOR reset (weights & contexts)
[DEBUG] handlePhaseChange -> MAJOR reset (weights & contexts)
[DEBUG] handlePhaseChange -> MAJOR reset (weights & contexts)
[DEBUG] handlePhaseChange -> MAJOR reset (weights & contexts)
[DEBUG] handlePhaseChange -> MAJOR reset (weights & contexts)
[DEBUG] handlePhaseChange -> MAJOR reset (weights & contexts)
[DEBUG] handlePhaseChange -> MAJOR reset (weights & contexts)
[DEBUG] handlePhaseChange -> MAJOR reset (weights & contexts)
[DEBUG] handlePhaseChange -> MAJOR reset (weights & contexts)
[DEBUG] handlePhaseChange -> MAJOR reset (weights & contexts)
[DEBUG] handlePhaseChange -> MAJOR reset (weights & contexts)
[DEBUG] handlePhaseChange -> MAJOR reset (weights & contexts)
[DEBUG] handlePhaseChange -> MAJOR reset (weights & contexts)
[DEBUG] handlePhaseChange -> MAJOR reset (weights & contexts)
[DEBUG] handlePhaseChange -> MAJOR reset (weights & contexts)
[DEBUG] handlePhaseChange -> MAJOR reset (weights & contexts)
[DEBUG] handlePhaseChange -> MAJOR reset (weights & contexts)
[DEBUG] handlePhaseChange -> MAJOR reset (weights & contexts)
[DEBUG] handlePhaseChange -> MAJOR reset (weights & contexts)
[DEBUG] handlePhaseChange -> MAJOR reset (weights & contexts)
[DEBUG] handlePhaseChange -> MAJOR reset (weights & contexts)
[DEBUG] handlePhaseChange -> MAJOR reset (weights & contexts)
[DEBUG] handlePhaseChange -> MAJOR reset (weights & contexts)
[DEBUG] handlePhaseChange -> MAJOR reset (weights & contexts)
[DEBUG] handlePhaseChange -> MAJOR reset (weights & contexts)
[DEBUG] handlePhaseChange -> MAJOR reset (weights & contexts)
[DEBUG] handlePhaseChange -> MAJOR reset (weights & contexts)
[DEBUG] handlePhaseChange -> MAJOR reset (weights & contexts)
[DEBUG] handlePhaseChange -> MAJOR reset (weights & contexts)
[DEBUG] handlePhaseChange -> MAJOR reset (weights & contexts)
[DEBUG] handlePhaseChange -> MAJOR reset (weights & contexts)
[DEBUG] handlePhaseChange -> MAJOR reset (weights & contexts)
[DEBUG] handlePhaseChange -> MAJOR reset (weights & contexts)
[DEBUG] handlePhaseChange -> MAJOR reset (weights & contexts)
[DEBUG] handlePhaseChange -> MAJOR reset (weights & contexts)
[DEBUG] handlePhaseChange -> MAJOR reset (weights & contexts)
[DEBUG] handlePhaseChange -> MAJOR reset (weights & contexts)
[DEBUG] handlePhaseChange -> MAJOR reset (weights & contexts)
[DEBUG] handlePhaseChange -> MAJOR reset (weights & contexts)
[DEBUG] handlePhaseChange -> MAJOR reset (weights & contexts)
[DEBUG] handlePhaseChange -> MAJOR reset (weights & contexts)
[DEBUG] handlePhaseChange -> MAJOR reset (weights & contexts)
[DEBUG] handlePhaseChange -> MAJOR reset (weights & contexts)
[DEBUG] handlePhaseChange -> MAJOR reset (weights & contexts)
[DEBUG] handlePhaseChange -> MAJOR reset (weights & contexts)
[DEBUG] handlePhaseChange -> MAJOR reset (weights & contexts)
[DEBUG] handlePhaseChange -> MAJOR reset (weights & contexts)
[DEBUG] handlePhaseChange -> MAJOR reset (weights & contexts)
[DEBUG] handlePhaseChange -> MAJOR reset (weights & contexts)
[DEBUG] handlePhaseChange -> MAJOR reset (weights & contexts)
[DEBUG] handlePhaseChange -> MAJOR reset (weights & contexts)
[DEBUG] handlePhaseChange -> MAJOR reset (weights & contexts)
[DEBUG] handlePhaseChange -> MAJOR reset (weights & contexts)
[DEBUG] handlePhaseChange -> MAJOR reset (weights & contexts)
[DEBUG] handlePhaseChange -> MAJOR reset (weights & contexts)
[DEBUG] handlePhaseChange -> MAJOR reset (weights & contexts)
[DEBUG] handlePhaseChange -> MAJOR reset (weights & contexts)
[DEBUG] handlePhaseChange -> MAJOR reset (weights & contexts)
[DEBUG] handlePhaseChange -> MAJOR reset (weights & contexts)
[DEBUG] handlePhaseChange -> MAJOR reset (weights & contexts)
[DEBUG] handlePhaseChange -> MAJOR reset (weights & contexts)
[DEBUG] handlePhaseChange -> MAJOR reset (weights & contexts)
[DEBUG] handlePhaseChange -> MAJOR reset (weights & contexts)
[DEBUG] handlePhaseChange -> MAJOR reset (weights & contexts)
[DEBUG] handlePhaseChange -> MAJOR reset (weights & contexts)
[DEBUG] handlePhaseChange -> MAJOR reset (weights & contexts)
[DEBUG] handlePhaseChange -> MAJOR reset (weights & contexts)
[DEBUG] handlePhaseChange -> MAJOR reset (weights & contexts)
[DEBUG] handlePhaseChange -> MAJOR reset (weights & contexts)
[DEBUG] handlePhaseChange -> MAJOR reset (weights & contexts)
[DEBUG] handlePhaseChange -> MAJOR reset (weights & contexts)
[DEBUG] handlePhaseChange -> MAJOR reset (weights & contexts)
[DEBUG] handlePhaseChange -> MAJOR reset (weights & contexts)
[DEBUG] handlePhaseChange -> MAJOR reset (weights & contexts)
[DEBUG] handlePhaseChange -> MAJOR reset (weights & contexts)
[DEBUG] handlePhaseChange -> MAJOR reset (weights & contexts)
[DEBUG] handlePhaseChange -> MAJOR reset (weights & contexts)
[DEBUG] handlePhaseChange -> MAJOR reset (weights & contexts)
[DEBUG] handlePhaseChange -> MAJOR reset (weights & contexts)
[DEBUG] handlePhaseChange -> MAJOR reset (weights & contexts)
[DEBUG] handlePhaseChange -> MAJOR reset (weights & contexts)
[DEBUG] handlePhaseChange -> MAJOR reset (weights & contexts)
[DEBUG] handlePhaseChange -> MAJOR reset (weights & contexts)
[DEBUG] handlePhaseChange -> MAJOR reset (weights & contexts)
[DEBUG] handlePhaseChange -> MAJOR reset (weights & contexts)
[DEBUG] handlePhaseChange -> MAJOR reset (weights & contexts)
[DEBUG] handlePhaseChange -> MAJOR reset (weights & contexts)
[DEBUG] handlePhaseChange -> MAJOR reset (weights & contexts)
[DEBUG] handlePhaseChange -> MAJOR reset (weights & contexts)
[DEBUG] handlePhaseChange -> MAJOR reset (weights & contexts)
[DEBUG] handlePhaseChange -> MAJOR reset (weights & contexts)
[DEBUG] handlePhaseChange -> MAJOR reset (weights & contexts)
[DEBUG] handlePhaseChange -> MAJOR reset (weights & contexts)
[DEBUG] handlePhaseChange -> MAJOR reset (weights & contexts)
[DEBUG] handlePhaseChange -> MAJOR reset (weights & contexts)
[DEBUG] handlePhaseChange -> MAJOR reset (weights & contexts)
[DEBUG] handlePhaseChange -> MAJOR reset (weights & contexts)
[DEBUG] handlePhaseChange -> MAJOR reset (weights & contexts)
[DEBUG] handlePhaseChange -> MAJOR reset (weights & contexts)
[DEBUG] handlePhaseChange -> MAJOR reset (weights & contexts)
[DEBUG] handlePhaseChange -> MAJOR reset (weights & contexts)
[DEBUG] handlePhaseChange -> MAJOR reset (weights & contexts)
[DEBUG] handlePhaseChange -> MAJOR reset (weights & contexts)
[DEBUG] handlePhaseChange -> MAJOR reset (weights & contexts)
[DEBUG] handlePhaseChange -> MAJOR reset (weights & contexts)
[DEBUG] handlePhaseChange -> MAJOR reset (weights & contexts)
[DEBUG] handlePhaseChange -> MAJOR reset (weights & contexts)
[DEBUG] handlePhaseChange -> MAJOR reset (weights & contexts)
[DEBUG] handlePhaseChange -> MAJOR reset (weights & contexts)
[DEBUG] handlePhaseChange -> MAJOR reset (weights & contexts)
[DEBUG] handlePhaseChange -> MAJOR reset (weights & contexts)
[DEBUG] handlePhaseChange -> MAJOR reset (weights & contexts)
[DEBUG] handlePhaseChange -> MAJOR reset (weights & contexts)
[DEBUG] handlePhaseChange -> MAJOR reset (weights & contexts)
[DEBUG] handlePhaseChange -> MAJOR reset (weights & contexts)
[DEBUG] handlePhaseChange -> MAJOR reset (weights & contexts)
[DEBUG] handlePhaseChange -> MAJOR reset (weights & contexts)
[DEBUG] handlePhaseChange -> MAJOR reset (weights & contexts)
[DEBUG] handlePhaseChange -> MAJOR reset (weights & contexts)
[DEBUG] handlePhaseChange -> MAJOR reset (weights & contexts)
[DEBUG] handlePhaseChange -> MAJOR reset (weights & contexts)
[DEBUG] handlePhaseChange -> MAJOR reset (weights & contexts)
[DEBUG] handlePhaseChange -> MAJOR reset (weights & contexts)
[DEBUG] handlePhaseChange -> MAJOR reset (weights & contexts)
[DEBUG] handlePhaseChange -> MAJOR reset (weights & contexts)
[DEBUG] handlePhaseChange -> MAJOR reset (weights & contexts)
[DEBUG] handlePhaseChange -> MAJOR reset (weights & contexts)
[DEBUG] handlePhaseChange -> MAJOR reset (weights & contexts)
[DEBUG] handlePhaseChange -> MAJOR reset (weights & contexts)
[DEBUG] handlePhaseChange -> MAJOR reset (weights & contexts)
[DEBUG] handlePhaseChange -> MAJOR reset (weights & contexts)
[DEBUG] handlePhaseChange -> MAJOR reset (weights & contexts)
[DEBUG] handlePhaseChange -> MAJOR reset (weights & contexts)
[DEBUG] handlePhaseChange -> MAJOR reset (weights & contexts)
[DEBUG] handlePhaseChange -> MAJOR reset (weights & contexts)
[DEBUG] handlePhaseChange -> MAJOR reset (weights & contexts)
[DEBUG] handlePhaseChange -> MAJOR reset (weights & contexts)
[DEBUG] handlePhaseChange -> MAJOR reset (weights & contexts)
[DEBUG] handlePhaseChange -> MAJOR reset (weights & contexts)
[DEBUG] handlePhaseChange -> MAJOR reset (weights & contexts)
[DEBUG] handlePhaseChange -> MAJOR reset (weights & contexts)
[DEBUG] handlePhaseChange -> MAJOR reset (weights & contexts)
[DEBUG] handlePhaseChange -> MAJOR reset (weights & contexts)
[DEBUG] handlePhaseChange -> MAJOR reset (weights & contexts)
[DEBUG] handlePhaseChange -> MAJOR reset (weights & contexts)
[DEBUG] handlePhaseChange -> MAJOR reset (weights & contexts)
[DEBUG] handlePhaseChange -> MAJOR reset (weights & contexts)
[DEBUG] handlePhaseChange -> MAJOR reset (weights & contexts)
[DEBUG] handlePhaseChange -> MAJOR reset (weights & contexts)
[DEBUG] handlePhaseChange -> MAJOR reset (weights & contexts)
[DEBUG] handlePhaseChange -> MAJOR reset (weights & contexts)
[DEBUG] handlePhaseChange -> MAJOR reset (weights & contexts)
[DEBUG] handlePhaseChange -> MAJOR reset (weights & contexts)
[DEBUG] handlePhaseChange -> MAJOR reset (weights & contexts)
[DEBUG] handlePhaseChange -> MAJOR reset (weights & contexts)
[DEBUG] handlePhaseChange -> MAJOR reset (weights & contexts)
[DEBUG] handlePhaseChange -> MAJOR reset (weights & contexts)
[DEBUG] handlePhaseChange -> MAJOR reset (weights & contexts)
[DEBUG] handlePhaseChange -> MAJOR reset (weights & contexts)
[DEBUG] handlePhaseChange -> MAJOR reset (weights & contexts)
[DEBUG] handlePhaseChange -> MAJOR reset (weights & contexts)
[DEBUG] handlePhaseChange -> MAJOR reset (weights & contexts)
[DEBUG] handlePhaseChange -> MAJOR reset (weights & contexts)
[DEBUG] handlePhaseChange -> MAJOR reset (weights & contexts)
[DEBUG] handlePhaseChange -> MAJOR reset (weights & contexts)
[DEBUG] handlePhaseChange -> MAJOR reset (weights & contexts)
[DEBUG] handlePhaseChange -> MAJOR reset (weights & contexts)
[DEBUG] handlePhaseChange -> MAJOR reset (weights & contexts)
[DEBUG] handlePhaseChange -> MAJOR reset (weights & contexts)
[DEBUG] handlePhaseChange -> MAJOR reset (weights & contexts)
[DEBUG] handlePhaseChange -> MAJOR reset (weights & contexts)
[DEBUG] handlePhaseChange -> MAJOR reset (weights & contexts)
[DEBUG] handlePhaseChange -> MAJOR reset (weights & contexts)
[DEBUG] handlePhaseChange -> MAJOR reset (weights & contexts)
[DEBUG] handlePhaseChange -> MAJOR reset (weights & contexts)
[DEBUG] handlePhaseChange -> MAJOR reset (weights & contexts)
[DEBUG] handlePhaseChange -> MAJOR reset (weights & contexts)
[DEBUG] handlePhaseChange -> MAJOR reset (weights & contexts)
[DEBUG] handlePhaseChange -> MAJOR reset (weights & contexts)
[DEBUG] handlePhaseChange -> MAJOR reset (weights & contexts)
[DEBUG] handlePhaseChange -> MAJOR reset (weights & contexts)
[DEBUG] handlePhaseChange -> MAJOR reset (weights & contexts)
[DEBUG] handlePhaseChange -> MAJOR reset (weights & contexts)
[DEBUG] handlePhaseChange -> MAJOR reset (weights & contexts)
[DEBUG] handlePhaseChange -> MAJOR reset (weights & contexts)
[DEBUG] handlePhaseChange -> MAJOR reset (weights & contexts)
[DEBUG] handlePhaseChange -> MAJOR reset (weights & contexts)
[DEBUG] handlePhaseChange -> MAJOR reset (weights & contexts)
[DEBUG] handlePhaseChange -> MAJOR reset (weights & contexts)
[DEBUG] handlePhaseChange -> MAJOR reset (weights & contexts)
[DEBUG] handlePhaseChange -> MAJOR reset (weights & contexts)
[DEBUG] handlePhaseChange -> MAJOR reset (weights & contexts)
[DEBUG] handlePhaseChange -> MAJOR reset (weights & contexts)
[DEBUG] handlePhaseChange -> MAJOR reset (weights & contexts)
[DEBUG] handlePhaseChange -> MAJOR reset (weights & contexts)
[DEBUG] handlePhaseChange -> MAJOR reset (weights & contexts)
[DEBUG] handlePhaseChange -> MAJOR reset (weights & contexts)
[DEBUG] handlePhaseChange -> MAJOR reset (weights & contexts)
[DEBUG] handlePhaseChange -> MAJOR reset (weights & contexts)
[DEBUG] handlePhaseChange -> MAJOR reset (weights & contexts)
[DEBUG] handlePhaseChange -> MAJOR reset (weights & contexts)
[DEBUG] handlePhaseChange -> MAJOR reset (weights & contexts)
[DEBUG] handlePhaseChange -> MAJOR reset (weights & contexts)
[DEBUG] handlePhaseChange -> MAJOR reset (weights & contexts)
[DEBUG] handlePhaseChange -> MAJOR reset (weights & contexts)
[DEBUG] handlePhaseChange -> MAJOR reset (weights & contexts)
[DEBUG] handlePhaseChange -> MAJOR reset (weights & contexts)
[DEBUG] handlePhaseChange -> MAJOR reset (weights & contexts)
[DEBUG] handlePhaseChange -> MAJOR reset (weights & contexts)
[DEBUG] handlePhaseChange -> MAJOR reset (weights & contexts)
[DEBUG] handlePhaseChange -> MAJOR reset (weights & contexts)
[DEBUG] handlePhaseChange -> MAJOR reset (weights & contexts)
[DEBUG] handlePhaseChange -> MAJOR reset (weights & contexts)
[DEBUG] handlePhaseChange -> MAJOR reset (weights & contexts)
[DEBUG] handlePhaseChange -> MAJOR reset (weights & contexts)
[DEBUG] handlePhaseChange -> MAJOR reset (weights & contexts)
[DEBUG] handlePhaseChange -> MAJOR reset (weights & contexts)
[DEBUG] handlePhaseChange -> MAJOR reset (weights & contexts)
[DEBUG] handlePhaseChange -> MAJOR reset (weights & contexts)
[DEBUG] handlePhaseChange -> MAJOR reset (weights & contexts)
[DEBUG] handlePhaseChange -> MAJOR reset (weights & contexts)
[DEBUG] handlePhaseChange -> MAJOR reset (weights & contexts)
[DEBUG] handlePhaseChange -> MAJOR reset (weights & contexts)
[DEBUG] handlePhaseChange -> MAJOR reset (weights & contexts)
[DEBUG] handlePhaseChange -> MAJOR reset (weights & contexts)
[DEBUG] handlePhaseChange -> MAJOR reset (weights & contexts)
[DEBUG] handlePhaseChange -> MAJOR reset (weights & contexts)
[DEBUG] handlePhaseChange -> MAJOR reset (weights & contexts)
[DEBUG] handlePhaseChange -> MAJOR reset (weights & contexts)
[DEBUG] handlePhaseChange -> MAJOR reset (weights & contexts)
[DEBUG] handlePhaseChange -> MAJOR reset (weights & contexts)
[DEBUG] handlePhaseChange -> MAJOR reset (weights & contexts)
[DEBUG] handlePhaseChange -> MAJOR reset (weights & contexts)
[DEBUG] handlePhaseChange -> MAJOR reset (weights & contexts)
[DEBUG] handlePhaseChange -> MAJOR reset (weights & contexts)
[DEBUG] handlePhaseChange -> MAJOR reset (weights & contexts)
[DEBUG] handlePhaseChange -> MAJOR reset (weights & contexts)
[DEBUG] handlePhaseChange -> MAJOR reset (weights & contexts)
[DEBUG] handlePhaseChange -> MAJOR reset (weights & contexts)
[DEBUG] handlePhaseChange -> MAJOR reset (weights & contexts)
[DEBUG] handlePhaseChange -> MAJOR reset (weights & contexts)
[DEBUG] handlePhaseChange -> MAJOR reset (weights & contexts)
[DEBUG] handlePhaseChange -> MAJOR reset (weights & contexts)
[DEBUG] handlePhaseChange -> MAJOR reset (weights & contexts)
[DEBUG] handlePhaseChange -> MAJOR reset (weights & contexts)
[DEBUG] handlePhaseChange -> MAJOR reset (weights & contexts)
[DEBUG] handlePhaseChange -> MAJOR reset (weights & contexts)
[DEBUG] handlePhaseChange -> MAJOR reset (weights & contexts)
[DEBUG] handlePhaseChange -> MAJOR reset (weights & contexts)
[DEBUG] handlePhaseChange -> MAJOR reset (weights & contexts)
[DEBUG] handlePhaseChange -> MAJOR reset (weights & contexts)
[DEBUG] handlePhaseChange -> MAJOR reset (weights & contexts)
[DEBUG] handlePhaseChange -> MAJOR reset (weights & contexts)
[DEBUG] handlePhaseChange -> MAJOR reset (weights & contexts)
[DEBUG] handlePhaseChange -> MAJOR reset (weights & contexts)
[DEBUG] handlePhaseChange -> MAJOR reset (weights & contexts)
[DEBUG] handlePhaseChange -> MAJOR reset (weights & contexts)
[DEBUG] handlePhaseChange -> MAJOR reset (weights & contexts)
[DEBUG] handlePhaseChange -> MAJOR reset (weights & contexts)
[DEBUG] handlePhaseChange -> MAJOR reset (weights & contexts)
[DEBUG] handlePhaseChange -> MAJOR reset (weights & contexts)
[DEBUG] handlePhaseChange -> MAJOR reset (weights & contexts)
[DEBUG] handlePhaseChange -> MAJOR reset (weights & contexts)
[DEBUG] handlePhaseChange -> MAJOR reset (weights & contexts)
[DEBUG] handlePhaseChange -> MAJOR reset (weights & contexts)
[DEBUG] handlePhaseChange -> MAJOR reset (weights & contexts)
[DEBUG] handlePhaseChange -> MAJOR reset (weights & contexts)
[DEBUG] handlePhaseChange -> MAJOR reset (weights & contexts)
[DEBUG] handlePhaseChange -> MAJOR reset (weights & contexts)
[DEBUG] handlePhaseChange -> MAJOR reset (weights & contexts)
[DEBUG] handlePhaseChange -> MAJOR reset (weights & contexts)
[DEBUG] handlePhaseChange -> MAJOR reset (weights & contexts)
[DEBUG] handlePhaseChange -> MAJOR reset (weights & contexts)
[DEBUG] handlePhaseChange -> MAJOR reset (weights & contexts)
[DEBUG] handlePhaseChange -> MAJOR reset (weights & contexts)
[DEBUG] handlePhaseChange -> MAJOR reset (weights & contexts)
[DEBUG] handlePhaseChange -> MAJOR reset (weights & contexts)
[DEBUG] handlePhaseChange -> MAJOR reset (weights & contexts)
[DEBUG] handlePhaseChange -> MAJOR reset (weights & contexts)
[DEBUG] handlePhaseChange -> MAJOR reset (weights & contexts)
[DEBUG] handlePhaseChange -> MAJOR reset (weights & contexts)
[DEBUG] handlePhaseChange -> MAJOR reset (weights & contexts)
[DEBUG] handlePhaseChange -> MAJOR reset (weights & contexts)
[DEBUG] handlePhaseChange -> MAJOR reset (weights & contexts)
[DEBUG] handlePhaseChange -> MAJOR reset (weights & contexts)
[DEBUG] handlePhaseChange -> MAJOR reset (weights & contexts)
[DEBUG] handlePhaseChange -> MAJOR reset (weights & contexts)
[DEBUG] handlePhaseChange -> MAJOR reset (weights & contexts)
[DEBUG] handlePhaseChange -> MAJOR reset (weights & contexts)
[DEBUG] handlePhaseChange -> MAJOR reset (weights & contexts)
[DEBUG] handlePhaseChange -> MAJOR reset (weights & contexts)
[DEBUG] handlePhaseChange -> MAJOR reset (weights & contexts)
[DEBUG] handlePhaseChange -> MAJOR reset (weights & contexts)
[DEBUG] handlePhaseChange -> MAJOR reset (weights & contexts)
[DEBUG] handlePhaseChange -> MAJOR reset (weights & contexts)
[DEBUG] handlePhaseChange -> MAJOR reset (weights & contexts)
[DEBUG] handlePhaseChange -> MAJOR reset (weights & contexts)
[DEBUG] handlePhaseChange -> MAJOR reset (weights & contexts)
[DEBUG] handlePhaseChange -> MAJOR reset (weights & contexts)
[DEBUG] handlePhaseChange -> MAJOR reset (weights & contexts)
[DEBUG] handlePhaseChange -> MAJOR reset (weights & contexts)
[DEBUG] handlePhaseChange -> MAJOR reset (weights & contexts)
[DEBUG] handlePhaseChange -> MAJOR reset (weights & contexts)
[DEBUG] handlePhaseChange -> MAJOR reset (weights & contexts)
[DEBUG] handlePhaseChange -> MAJOR reset (weights & contexts)
[DEBUG] handlePhaseChange -> MAJOR reset (weights & contexts)
[DEBUG] handlePhaseChange -> MAJOR reset (weights & contexts)
[DEBUG] handlePhaseChange -> MAJOR reset (weights & contexts)
[DEBUG] handlePhaseChange -> MAJOR reset (weights & contexts)
[DEBUG] handlePhaseChange -> MAJOR reset (weights & contexts)
[DEBUG] handlePhaseChange -> MAJOR reset (weights & contexts)
[DEBUG] handlePhaseChange -> MAJOR reset (weights & contexts)
[DEBUG] handlePhaseChange -> MAJOR reset (weights & contexts)
[DEBUG] handlePhaseChange -> MAJOR reset (weights & contexts)
[DEBUG] handlePhaseChange -> MAJOR reset (weights & contexts)
[DEBUG] handlePhaseChange -> MAJOR reset (weights & contexts)
[DEBUG] handlePhaseChange -> MAJOR reset (weights & contexts)
[DEBUG] handlePhaseChange -> MAJOR reset (weights & contexts)
[DEBUG] handlePhaseChange -> MAJOR reset (weights & contexts)
[DEBUG] handlePhaseChange -> MAJOR reset (weights & contexts)
[DEBUG] handlePhaseChange -> MAJOR reset (weights & contexts)
[DEBUG] handlePhaseChange -> MAJOR reset (weights & contexts)
[DEBUG] handlePhaseChange -> MAJOR reset (weights & contexts)
[DEBUG] handlePhaseChange -> MAJOR reset (weights & contexts)
[DEBUG] handlePhaseChange -> MAJOR reset (weights & contexts)
[DEBUG] handlePhaseChange -> MAJOR reset (weights & contexts)
[DEBUG] handlePhaseChange -> MAJOR reset (weights & contexts)
[DEBUG] handlePhaseChange -> MAJOR reset (weights & contexts)
[DEBUG] handlePhaseChange -> MAJOR reset (weights & contexts)
[DEBUG] handlePhaseChange -> MAJOR reset (weights & contexts)
[DEBUG] handlePhaseChange -> MAJOR reset (weights & contexts)
[DEBUG] handlePhaseChange -> MAJOR reset (weights & contexts)
[DEBUG] handlePhaseChange -> MAJOR reset (weights & contexts)
[DEBUG] handlePhaseChange -> MAJOR reset (weights & contexts)
[DEBUG] handlePhaseChange -> MAJOR reset (weights & contexts)
[DEBUG] handlePhaseChange -> MAJOR reset (weights & contexts)
[DEBUG] handlePhaseChange -> MAJOR reset (weights & contexts)
[DEBUG] handlePhaseChange -> MAJOR reset (weights & contexts)
[DEBUG] handlePhaseChange -> MAJOR reset (weights & contexts)
[DEBUG] handlePhaseChange -> MAJOR reset (weights & contexts)
[DEBUG] handlePhaseChange -> MAJOR reset (weights & contexts)
[DEBUG] handlePhaseChange -> MAJOR reset (weights & contexts)
[DEBUG] handlePhaseChange -> MAJOR reset (weights & contexts)
[DEBUG] handlePhaseChange -> MAJOR reset (weights & contexts)
[DEBUG] handlePhaseChange -> MAJOR reset (weights & contexts)
[DEBUG] handlePhaseChange -> MAJOR reset (weights & contexts)
[DEBUG] handlePhaseChange -> MAJOR reset (weights & contexts)
[DEBUG] handlePhaseChange -> MAJOR reset (weights & contexts)
[DEBUG] handlePhaseChange -> MAJOR reset (weights & contexts)
[DEBUG] handlePhaseChange -> MAJOR reset (weights & contexts)
[DEBUG] handlePhaseChange -> MAJOR reset (weights & contexts)
[DEBUG] handlePhaseChange -> MAJOR reset (weights & contexts)
[DEBUG] handlePhaseChange -> MAJOR reset (weights & contexts)
[DEBUG] handlePhaseChange -> MAJOR reset (weights & contexts)
[DEBUG] handlePhaseChange -> MAJOR reset (weights & contexts)
[...]
scooby_state_402dab|31|3 0,0,0,0,0,0,0,0,0,0,0,0,1,0,0,1,
scooby_state_403012|12|-3 1,0,0,0,0,0,0,0,0,0,0,0,0,0,0,1,
scooby_state_402dfb|20|-11 0,0,0,0,0,0,0,0,0,0,0,0,1,0,0,1,
scooby_state_40301c|47|-16 1,0,0,0,0,0,0,0,0,0,0,0,0,0,0,1,
scooby_state_403083|25|-14 1,0,0,0,0,0,0,0,0,0,0,0,0,0,0,1,
scooby_state_402dc7|33|15 0,0,0,0,0,0,0,0,0,0,0,1,0,0,0,1,
scooby_state_403083|4|-35 1,0,0,0,0,0,0,0,0,0,0,0,0,0,0,1,
scooby_state_403083|27|-13 1,0,0,0,0,0,0,0,0,0,0,0,0,0,0,1,
scooby_state_40307e|22|-27 1,0,0,0,0,0,0,0,0,0,0,0,0,0,0,1,
scooby_state_403012|21|-31 0,0,0,0,0,0,0,0,0,0,0,0,1,0,0,1,
scooby_state_403039|8|-18 1,0,0,0,0,0,0,0,0,0,0,0,0,0,0,1,
scooby_state_403083|42|6 1,0,0,0,0,0,0,0,0,0,0,0,0,0,0,1,
scooby_state_403083|22|-38 1,0,0,0,0,0,0,0,0,0,0,0,0,0,0,1,
scooby_state_403083|18|-16 0,0,0,0,0,0,0,0,0,0,0,0,1,0,0,1,
scooby_state_403012|54|48 1,0,0,0,0,0,0,0,0,0,0,0,0,0,0,1,
scooby_state_403083|45|13 1,0,0,0,0,0,0,0,0,0,0,0,0,0,0,1,
scooby_state_402d79|25|-2 1,0,0,0,0,0,0,0,0,0,0,0,0,0,0,1,
scooby_state_40301c|54|18 1,0,0,0,0,0,0,0,0,0,0,0,0,0,0,1,
scooby_state_403083|34|-1 1,0,0,0,0,0,0,0,0,0,0,0,0,0,0,1,
scooby_state_403083|23|-7 0,0,0,0,0,0,0,0,0,0,0,0,0,0,1,1,
scooby_state_402dc3|24|-2 1,0,0,0,0,0,0,0,0,0,0,0,0,0,0,1,
scooby_state_403012|27|1 1,0,0,0,0,0,0,0,0,0,0,0,0,0,0,1,
scooby_state_402d79|6|-1 0,0,0,0,0,0,0,0,0,0,0,1,0,0,0,1,
scooby_state_402dc7|57|12 0,0,0,0,0,0,0,0,0,0,0,0,1,0,0,1,
scooby_state_403083|20|-41 0,0,0,0,0,0,0,0,0,0,0,0,0,0,1,1,
scooby_state_402d40|7|0 0,0,0,0,0,0,0,0,0,0,0,0,1,0,0,1,
scooby_state_40301c|45|-7 0,0,0,0,0,0,0,0,0,0,0,0,1,0,0,1,
scooby_state_403083|42|14 1,0,0,0,0,0,0,0,0,0,0,0,0,0,0,1,
scooby_state_403083|37|-17 1,0,0,0,0,0,0,0,0,0,0,0,0,0,0,1,
scooby_state_403012|10|-14 1,0,0,0,0,0,0,0,0,0,0,0,0,0,0,1,
scooby_state_403083|9|-21 1,0,0,0,0,0,0,0,0,0,0,0,0,0,0,1,
scooby_state_403012|48|20 1,0,0,0,0,0,0,0,0,0,0,0,0,0,0,1,
scooby_state_403012|56|52 0,0,0,0,0,0,0,0,0,0,0,0,0,1,0,1,
scooby_state_40307e|8|-45 1,0,0,0,0,0,0,0,0,0,0,0,0,0,0,1,
scooby_state_403039|16|-41 0,0,0,0,0,0,0,0,0,0,0,1,0,0,0,1,
scooby_state_403039|0|-11 1,0,0,0,0,0,0,0,0,0,0,0,0,0,0,1,
scooby_state_403012|12|-5 1,0,0,0,0,0,0,0,0,0,0,0,0,0,0,1,
scooby_state_403083|30|25 1,0,0,0,0,0,0,0,0,0,0,0,0,0,0,1,
scooby_state_403039|29|11 1,0,0,0,0,0,0,0,0,0,0,0,0,0,0,1,
scooby_state_403083|54|23 1,0,0,0,0,0,0,0,0,0,0,0,0,0,0,1,
scooby_state_403012|37|-19 0,0,0,0,0,0,0,0,0,0,0,0,0,0,1,1,
scooby_state_40301c|12|-16 1,0,0,0,0,0,0,0,0,0,0,0,0,0,0,1,
scooby_state_40301c|40|-17 1,0,0,0,0,0,0,0,0,0,0,0,0,0,0,1,
scooby_state_402dc3|42|-6 0,0,0,0,0,0,0,0,0,0,0,0,1,0,0,1,
scooby_state_40301c|45|-5 1,0,0,0,0,0,0,0,0,0,0,0,0,0,0,1,
scooby_state_402dc7|30|20 0,0,0,0,0,0,0,0,0,0,0,0,1,0,0,1,
scooby_state_403083|10|-43 1,0,0,0,0,0,0,0,0,0,0,0,0,0,0,1,
scooby_state_403083|27|-11 1,0,0,0,0,0,0,0,0,0,0,0,0,0,0,1,
scooby_state_403012|20|-29 1,0,0,0,0,0,0,0,0,0,0,0,0,0,0,1,
scooby_state_403083|31|-32 1,0,0,0,0,0,0,0,0,0,0,0,0,0,0,1,
scooby_state_403012|25|-19 0,0,0,0,0,0,0,0,0,0,0,0,0,0,1,1,
scooby_state_403083|36|-1 1,0,0,0,0,0,0,0,0,0,0,0,0,0,0,1,
scooby_state_40301c|18|4 1,0,0,0,0,0,0,0,0,0,0,0,0,0,0,1,
scooby_state_403083|18|-3 1,0,0,0,0,0,0,0,0,0,0,0,0,0,0,1,
scooby_state_403039|7|-29 1,0,0,0,0,0,0,0,0,0,0,0,0,0,0,1,
scooby_state_40301c|14|-5 1,0,0,0,0,0,0,0,0,0,0,0,0,0,0,1,
scooby_state_403039|42|-21 0,0,0,0,0,0,0,0,0,0,0,1,0,0,0,1,
scooby_state_403039|16|-5 0,0,0,0,0,0,0,0,0,0,0,1,0,0,0,1,
scooby_state_402dab|7|3 0,0,0,0,0,0,0,0,0,0,0,1,0,0,0,1,
scooby_state_403012|15|-9 0,0,0,0,0,0,0,0,0,0,0,0,1,0,0,1,
scooby_state_403012|11|-18 0,0,0,0,0,0,0,0,0,0,0,0,1,0,0,1,
scooby_state_403039|6|-5 0,0,0,0,0,0,0,0,0,0,0,1,0,0,0,1,
scooby_state_40301c|52|4 0,0,0,0,0,0,0,0,0,0,0,0,0,1,0,1,
scooby_state_403012|63|55 1,0,0,0,0,0,0,0,0,0,0,0,0,0,0,1,
scooby_state_402dcb|61|30 0,0,0,0,0,0,0,0,0,0,0,0,1,0,0,1,
scooby_state_40301c|16|-16 1,0,0,0,0,0,0,0,0,0,0,0,0,0,0,1,
scooby_state_403039|2|-7 0,0,0,0,0,0,0,0,0,0,0,0,1,0,0,1,
scooby_state_403012|18|-35 0,0,0,0,0,0,0,0,0,0,0,0,1,0,0,1,
scooby_state_402d79|1|-2 1,0,0,0,0,0,0,0,0,0,0,0,0,0,0,1,
scooby_state_402818|63|4 1,0,0,0,0,0,0,0,0,0,0,0,0,0,0,1,
scooby_state_403012|6|-14 1,0,0,0,0,0,0,0,0,0,0,0,0,0,0,1,
scooby_state_40307e|24|-27 1,0,0,0,0,0,0,0,0,0,0,0,0,0,0,1,
scooby_state_402dc3|61|-2 1,0,0,0,0,0,0,0,0,0,0,0,0,0,0,1,
scooby_state_40301c|55|-5 1,0,0,0,0,0,0,0,0,0,0,0,0,0,0,1,
scooby_state_403039|62|2 0,0,0,0,1,0,0,0,0,0,0,0,0,0,0,1,
scooby_state_403083|4|-32 1,0,0,0,0,0,0,0,0,0,0,0,0,0,0,1,
scooby_state_403083|28|-10 1,0,0,0,0,0,0,0,0,0,0,0,0,0,0,1,
scooby_state_403012|24|-11 1,0,0,0,0,0,0,0,0,0,0,0,0,0,0,1,
scooby_state_403039|49|13 0,0,0,0,0,0,0,0,0,0,0,1,0,0,0,1,
scooby_state_403012|38|-21 0,0,0,0,0,0,0,0,0,0,0,0,1,0,0,1,
scooby_state_403083|37|5 1,0,0,0,0,0,0,0,0,0,0,0,0,0,0,1,
scooby_state_403083|26|20 1,0,0,0,0,0,0,0,0,0,0,0,0,0,0,1,
scooby_state_403039|0|-21 0,0,0,0,0,0,0,0,0,0,0,1,0,0,0,1,
scooby_state_402dc7|24|-15 0,0,0,0,0,0,0,0,0,0,0,0,1,0,0,1,
scooby_state_403012|23|7 1,0,0,0,0,0,0,0,0,0,0,0,0,0,0,1,
scooby_state_402dc7|26|17 0,0,0,0,0,0,0,0,0,0,0,0,1,0,0,1,
scooby_state_403012|30|-30 1,0,0,0,0,0,0,0,0,0,0,0,0,0,0,1,
scooby_state_403012|22|-31 0,0,0,0,1,0,0,0,0,0,0,0,0,0,0,1,
scooby_state_40307e|0|-48 1,0,0,0,0,0,0,0,0,0,0,0,0,0,0,1,
scooby_state_403012|54|14 1,0,0,0,0,0,0,0,0,0,0,0,0,0,0,1,
scooby_state_403039|54|-4 0,0,0,0,0,0,0,0,0,0,0,1,0,0,0,1,
scooby_state_403083|26|-30 1,0,0,0,0,0,0,0,0,0,0,0,0,0,0,1,
scooby_state_403083|55|15 1,0,0,0,0,0,0,0,0,0,0,0,0,0,0,1,
scooby_state_403083|2|-17 1,0,0,0,0,0,0,0,0,0,0,0,0,0,0,1,
scooby_state_403012|10|-43 1,0,0,0,0,0,0,0,0,0,0,0,0,0,0,1,
scooby_state_403039|48|-14 0,0,0,0,0,0,0,0,0,0,0,0,1,0,0,1,
scooby_state_403083|24|-34 1,0,0,0,0,0,0,0,0,0,0,0,0,0,0,1,
scooby_state_403039|10|-9 0,0,0,0,0,0,0,0,0,0,0,1,0,0,0,1,
scooby_state_403039|43|-20 0,0,0,0,0,0,0,0,0,0,0,1,0,0,0,1,
scooby_state_403039|23|6 0,0,0,0,0,0,0,0,0,0,0,1,0,0,0,1,
scooby_state_40301c|0|-40 0,0,0,0,0,0,0,0,0,0,0,0,0,0,1,1,
scooby_state_403083|26|-5 0,0,0,0,0,0,0,0,0,0,0,0,1,0,0,1,
scooby_state_403039|14|-25 0,0,0,0,0,0,0,0,0,0,0,1,0,0,0,1,
scooby_state_403012|28|-34 1,0,0,0,0,0,0,0,0,0,0,0,0,0,0,1,
scooby_state_403083|25|-30 0,0,0,0,0,0,0,0,0,0,0,0,0,0,1,1,
scooby_state_403012|8|-38 1,0,0,0,0,0,0,0,0,0,0,0,0,0,0,1,
scooby_state_403012|30|-27 1,0,0,0,0,0,0,0,0,0,0,0,0,0,0,1,
scooby_state_403039|6|-7 0,0,0,0,0,0,0,0,0,0,0,1,0,0,0,1,
scooby_state_403083|37|7 1,0,0,0,0,0,0,0,0,0,0,0,0,0,0,1,
scooby_state_403083|52|-3 1,0,0,0,0,0,0,0,0,0,0,0,0,0,0,1,
scooby_state_402d01|52|1 1,0,0,0,0,0,0,0,0,0,0,0,0,0,0,1,
scooby_state_403083|23|-3 1,0,0,0,0,0,0,0,0,0,0,0,0,0,0,1,
scooby_state_403039|27|-12 1,0,0,0,0,0,0,0,0,0,0,0,0,0,0,1,
scooby_state_40301c|4|-31 0,0,0,0,0,0,0,0,0,0,0,0,1,0,0,1,
scooby_state_40301c|6|-46 1,0,0,0,0,0,0,0,0,0,0,0,0,0,0,1,
scooby_state_402818|16|4 1,0,0,0,0,0,0,0,0,0,0,0,0,0,0,1,
scooby_state_40301c|49|-9 1,0,0,0,0,0,0,0,0,0,0,0,0,0,0,1,
scooby_state_402d96|10|-1 0,0,0,0,0,0,0,0,0,0,0,0,1,0,0,1,
scooby_state_402dc7|30|16 0,0,0,0,0,0,0,0,0,0,0,0,1,0,0,1,
scooby_state_403012|48|-10 1,0,0,0,0,0,0,0,0,0,0,0,0,0,0,1,
scooby_state_403083|5|-1 1,0,0,0,0,0,0,0,0,0,0,0,0,0,0,1,
scooby_state_402dc7|49|-14 0,0,0,0,0,0,0,0,0,0,0,0,1,0,0,1,
scooby_state_40301c|1|-15 0,0,0,0,0,0,0,0,0,0,0,0,0,1,0,1,
scooby_state_402d96|7|-1 0,0,0,0,0,0,0,0,0,0,0,0,1,0,0,1,
scooby_state_403039|53|5 0,0,0,0,0,0,0,0,0,0,0,1,0,0,0,1,
scooby_state_403012|13|-22 1,0,0,0,0,0,0,0,0,0,0,0,0,0,0,1,
scooby_state_403083|10|-17 1,0,0,0,0,0,0,0,0,0,0,0,0,0,0,1,
scooby_state_402dc7|5|-22 0,0,0,0,0,0,0,0,0,0,0,0,1,0,0,1,
scooby_state_40301c|44|-18 0,0,0,0,0,0,0,0,0,0,0,0,0,0,1,1,
scooby_state_403039|63|59 0,0,0,0,0,0,0,0,0,0,0,1,0,0,0,1,
scooby_state_403083|55|-1 1,0,0,0,0,0,0,0,0,0,0,0,0,0,0,1,
scooby_state_403083|48|3 0,0,0,0,0,0,0,0,0,0,0,0,1,0,0,1,
scooby_state_403039|41|-12 0,0,0,0,0,0,0,0,0,0,0,1,0,0,0,1,
scooby_state_403083|16|6 0,0,0,0,0,0,0,0,0,0,0,0,0,0,1,1,
scooby_state_403012|0|-58 0,1,0,0,0,0,0,0,0,0,0,0,0,0,0,1,
scooby_state_402d79|33|-1 0,0,0,0,0,0,0,0,0,0,0,1,0,0,0,1,
scooby_state_403012|32|-21 0,0,0,0,0,0,0,0,0,0,0,0,1,0,0,1,
scooby_state_403012|9|-50 0,0,0,0,1,0,0,0,0,0,0,0,0,0,0,1,
scooby_state_403083|22|-1 1,0,0,0,0,0,0,0,0,0,0,0,0,0,0,1,
scooby_state_403039|12|-7 1,0,0,0,0,0,0,0,0,0,0,0,0,0,0,1,
scooby_state_403039|40|-22 0,0,0,0,0,0,0,0,0,0,0,0,1,0,0,1,
scooby_state_40301c|2|-23 0,0,0,0,0,0,0,0,0,0,0,0,0,0,1,1,
scooby_state_403083|63|6 1,0,0,0,0,0,0,0,0,0,0,0,0,0,0,1,
scooby_state_402dcb|61|23 1,0,0,0,0,0,0,0,0,0,0,0,0,0,0,1,
scooby_state_403039|39|-16 1,0,0,0,0,0,0,0,0,0,0,0,0,0,0,1,
scooby_state_403083|47|13 0,0,0,0,0,0,0,0,0,0,0,0,0,1,0,1,
scooby_state_403083|26|6 1,0,0,0,0,0,0,0,0,0,0,0,0,0,0,1,
scooby_state_403012|42|5 1,0,0,0,0,0,0,0,0,0,0,0,0,0,0,1,
scooby_state_403083|42|-17 0,0,0,0,1,0,0,0,0,0,0,0,0,0,0,1,
scooby_state_40301c|42|-10 1,0,0,0,0,0,0,0,0,0,0,0,0,0,0,1,
scooby_state_403012|14|-42 0,0,0,0,0,0,0,0,0,0,0,0,0,1,0,1,
scooby_state_403012|59|-3 0,0,0,0,1,0,0,0,0,0,0,0,0,0,0,1,
scooby_state_403039|6|-4 0,0,0,0,0,0,0,0,0,0,0,1,0,0,0,1,
scooby_state_403083|5|-54 1,0,0,0,0,0,0,0,0,0,0,0,0,0,0,1,
scooby_state_403012|20|-42 0,0,0,0,0,0,0,0,0,0,0,0,0,1,0,1,
scooby_state_403012|4|-51 0,0,0,0,0,0,0,0,0,0,0,1,0,0,0,1,
scooby_state_402d79|37|-2 1,0,0,0,0,0,0,0,0,0,0,0,0,0,0,1,
scooby_state_402dab|38|3 0,0,0,0,0,0,0,0,0,0,0,0,1,0,0,1,
scooby_state_402dc3|32|-6 0,0,0,0,0,0,0,0,0,0,0,0,1,0,0,1,
scooby_state_403083|33|-5 0,0,0,0,0,0,0,0,0,0,0,0,1,0,0,1,
scooby_state_403012|58|18 0,0,0,0,0,0,0,0,0,0,0,1,0,0,0,1,
scooby_state_403083|34|-22 0,0,0,0,0,0,0,0,0,0,0,0,1,0,0,1,
scooby_state_40301c|38|-15 0,0,0,0,0,0,0,0,0,0,0,0,1,0,0,1,
scooby_state_403039|30|-7 1,0,0,0,0,0,0,0,0,0,0,0,0,0,0,1,
scooby_state_403083|27|-31 1,0,0,0,0,0,0,0,0,0,0,0,0,0,0,1,
scooby_state_403039|54|5 0,0,0,0,0,0,0,0,0,0,0,1,0,0,0,1,
scooby_state_403039|15|-7 0,0,0,0,0,0,0,0,0,0,0,1,0,0,0,1,
scooby_state_403083|47|-10 1,0,0,0,0,0,0,0,0,0,0,0,0,0,0,1,
scooby_state_403083|40|-10 1,0,0,0,0,0,0,0,0,0,0,0,0,0,0,1,
scooby_state_402dc7|41|-18 0,0,0,0,0,0,0,0,0,0,0,0,0,1,0,1,
scooby_state_403083|21|-37 1,0,0,0,0,0,0,0,0,0,0,0,0,0,0,1,
scooby_state_403083|8|-28 1,0,0,0,0,0,0,0,0,0,0,0,0,0,0,1,
scooby_state_402818|13|4 1,0,0,0,0,0,0,0,0,0,0,0,0,0,0,1,
scooby_state_403083|27|-26 1,0,0,0,0,0,0,0,0,0,0,0,0,0,0,1,
scooby_state_40301c|18|-8 0,0,0,0,0,0,0,0,0,0,0,0,1,0,0,1,
scooby_state_40301c|37|-7 0,0,0,0,0,0,0,0,0,0,0,0,1,0,0,1,
scooby_state_40301c|55|2 1,0,0,0,0,0,0,0,0,0,0,0,0,0,0,1,
scooby_state_403083|7|-1 1,0,0,0,0,0,0,0,0,0,0,0,0,0,0,1,
scooby_state_402dc7|35|-18 0,0,0,0,0,0,0,0,0,0,0,0,1,0,0,1,
scooby_state_403012|46|-12 1,0,0,0,0,0,0,0,0,0,0,0,0,0,0,1,
scooby_state_402dcb|37|30 0,0,0,0,0,0,0,0,0,0,0,0,1,0,0,1,
scooby_state_403083|17|15 1,0,0,0,0,0,0,0,0,0,0,0,0,0,0,1,
scooby_state_402dc7|33|16 0,0,0,0,0,0,0,0,0,0,0,0,0,1,0,1,
scooby_state_403083|23|-38 0,0,0,0,0,0,0,0,0,0,0,0,0,0,1,1,
scooby_state_403083|35|-1 1,0,0,0,0,0,0,0,0,0,0,0,0,0,0,1,
scooby_state_403012|0|-62 1,0,0,0,0,0,0,0,0,0,0,0,0,0,0,1,
scooby_state_403012|21|18 0,0,0,0,0,0,0,0,0,0,0,0,1,0,0,1,
scooby_state_403039|2|-38 0,0,0,0,0,0,0,0,0,0,0,1,0,0,0,1,
scooby_state_402dc3|20|-2 0,0,0,0,0,0,0,0,0,0,0,0,0,1,0,1,
scooby_state_403012|26|14 1,0,0,0,0,0,0,0,0,0,0,0,0,0,0,1,
scooby_state_40283d|59|-3 0,0,0,0,0,0,0,0,0,0,0,0,0,0,1,1,
scooby_state_403083|34|-14 1,0,0,0,0,0,0,0,0,0,0,0,0,0,0,1,
scooby_state_403012|32|-10 0,0,0,0,0,0,0,0,0,0,0,0,1,0,0,1,
scooby_state_403083|11|-51 1,0,0,0,0,0,0,0,0,0,0,0,0,0,0,1,
scooby_state_403083|14|-11 1,0,0,0,0,0,0,0,0,0,0,0,0,0,0,1,
scooby_state_403012|20|18 0,0,0,0,0,0,0,0,0,0,0,0,1,0,0,1,
scooby_state_40307e|4|-9 1,0,0,0,0,0,0,0,0,0,0,0,0,0,0,1,
scooby_state_403039|16|-9 0,0,0,0,0,0,0,0,0,0,0,1,0,0,0,1,
scooby_state_403012|12|-36 1,0,0,0,0,0,0,0,0,0,0,0,0,0,0,1,
scooby_state_40301c|49|-3 1,0,0,0,0,0,0,0,0,0,0,0,0,0,0,1,
scooby_state_402d79|23|-2 1,0,0,0,0,0,0,0,0,0,0,0,0,0,0,1,
scooby_state_403083|20|-23 0,0,0,0,0,0,0,0,0,0,0,0,1,0,0,1,
scooby_state_402dc7|28|-19 0,0,0,0,0,0,0,0,0,0,0,0,0,1,0,1,
scooby_state_403012|43|-13 1,0,0,0,0,0,0,0,0,0,0,0,0,0,0,1,
scooby_state_403083|43|-7 1,0,0,0,0,0,0,0,0,0,0,0,0,0,0,1,
scooby_state_403083|21|-19 0,0,0,0,0,0,0,0,0,0,0,0,1,0,0,1,
scooby_state_403012|44|25 1,0,0,0,0,0,0,0,0,0,0,0,0,0,0,1,
scooby_state_403083|13|-4 1,0,0,0,0,0,0,0,0,0,0,0,0,0,0,1,
scooby_state_403083|4|-3 1,0,0,0,0,0,0,0,0,0,0,0,0,0,0,1,
scooby_state_403039|36|-12 1,0,0,0,0,0,0,0,0,0,0,0,0,0,0,1,

scooby_action_0_deg_dist 0,1969841,0,0,0,0,0,0,0,0,0,0,0,0,0,0,
scooby_action_-6_deg_dist 0,495980,289821,0,637751,0,861409,0,0,0,0,0,0,0,0,0,
scooby_action_4_deg_dist 0,9708,231,0,99,0,233,0,0,0,0,0,0,0,0,0,
scooby_action_1_deg_dist 0,2214329,703375,0,1381852,0,5286370,0,0,0,0,0,0,0,0,0,
scooby_action_30_deg_dist 0,4461,5,0,6,0,9,0,0,0,0,0,0,0,0,0,
scooby_action_5_deg_dist 0,4964,27,0,49,0,62,0,0,0,0,0,0,0,0,0,
scooby_action_3_deg_dist 0,9720,27,0,22,0,31,0,0,0,0,0,0,0,0,0,
scooby_action_32_deg_dist 0,5431,6,0,9,0,1,0,0,0,0,0,0,0,0,0,
scooby_action_10_deg_dist 0,9988,102,0,42,0,21,0,0,0,0,0,0,0,0,0,
scooby_action_11_deg_dist 0,4984,12,0,26,0,17,0,0,0,0,0,0,0,0,0,
scooby_action_12_deg_dist 0,4945,12,0,25,0,22,0,0,0,0,0,0,0,0,0,
scooby_action_22_deg_dist 0,4697,10,0,18,0,10,0,0,0,0,0,0,0,0,0,
scooby_action_23_deg_dist 0,4533,9,0,16,0,10,0,0,0,0,0,0,0,0,0,
scooby_action_-1_deg_dist 0,416022,200187,0,491411,0,4360089,0,0,0,0,0,0,0,0,0,
scooby_action_-3_deg_dist 0,2368400,1020232,0,1739110,0,7499491,0,0,0,0,0,0,0,0,0,

scooby_track_called 32000270
scooby_track_same_address 2696323
scooby_track_evict 29303691

scooby_reward_demand_called 32000270
scooby_reward_demand_pt_not_found 11157145
scooby_reward_demand_pt_found 20843125
scooby_reward_demand_pt_found_total 20843125
scooby_reward_demand_has_reward 11034
scooby_reward_train_called 7470770
scooby_reward_assign_reward_called 29303849
scooby_reward_no_pref 1969761
scooby_reward_incorrect 5501009
scooby_reward_correct_untimely 17228812
scooby_reward_correct_timely 3603279
scooby_reward_out_of_bounds 1000988
scooby_reward_tracker_hit 0

scooby_reward_none_low_bw 1969761
scooby_reward_none_high_bw 0
scooby_reward_incorrect_low_bw 5501009
scooby_reward_incorrect_high_bw 0
scooby_reward_correct_untimely_low_bw 17228812
scooby_reward_correct_untimely_high_bw 0
scooby_reward_correct_timely_low_bw 3603279
scooby_reward_correct_timely_high_bw 0
scooby_reward_out_of_bounds_low_bw 1000988
scooby_reward_out_of_bounds_high_bw 0
scooby_reward_tracker_hit_low_bw 0
scooby_reward_tracker_hit_high_bw 0

scooby_reward_1 0,1107701,5929298,1194924,130740,0,
scooby_reward_3 0,3726,1096,232,527,0,
scooby_reward_4 0,4848,1691,383,503,0,
scooby_reward_5 0,2641,496,205,369,0,
scooby_reward_10 0,3590,3034,470,1062,0,
scooby_reward_11 0,1968,277,257,877,0,
scooby_reward_12 0,2472,255,281,926,0,
scooby_reward_22 0,1697,7,390,1763,0,
scooby_reward_23 0,1371,2,378,1778,0,
scooby_reward_30 0,1140,7,309,2266,0,
scooby_reward_32 0,1638,380,276,2532,0,
scooby_reward_-1 0,800646,4340014,200577,85427,0,
scooby_reward_-3 0,3406692,5869985,1371770,578887,0,
scooby_reward_-6 0,160879,1082270,832827,193331,0,
scooby_reward_0 1969761,0,0,0,0,0,

scooby_train_called 29303690
scooby_train_compute_reward 7470770

scooby_register_fill_called 35255751
scooby_register_fill_set 5258769
scooby_register_fill_set_total 5258769

scooby_register_prefetch_hit_called 67213900
scooby_register_prefetch_hit_set 18427415
scooby_register_prefetch_hit_set_total 18427415

scooby_pref_issue_scooby 174258049

learning_engine_featurewise.action.called 32000270
learning_engine_featurewise.action.explore 58553
learning_engine_featurewise.action.exploit 31941717
learning_engine_featurewise.action.fallback 7257
learning_engine_featurewise.action.dyn_fallback_saved_bw 0
learning_engine_featurewise.action.dyn_fallback_saved_bw_acc 352218
learning_engine_featurewise.action.index_1_explored 3904
learning_engine_featurewise.action.index_1_exploited 9582022
learning_engine_featurewise.action.index_3_explored 3952
learning_engine_featurewise.action.index_3_exploited 5848
learning_engine_featurewise.action.index_4_explored 3915
learning_engine_featurewise.action.index_4_exploited 6356
learning_engine_featurewise.action.index_5_explored 3893
learning_engine_featurewise.action.index_5_exploited 1209
learning_engine_featurewise.action.index_10_explored 3986
learning_engine_featurewise.action.index_10_exploited 6167
learning_engine_featurewise.action.index_11_explored 3965
learning_engine_featurewise.action.index_11_exploited 1074
learning_engine_featurewise.action.index_12_explored 3972
learning_engine_featurewise.action.index_12_exploited 1032
learning_engine_featurewise.action.index_22_explored 4028
learning_engine_featurewise.action.index_22_exploited 707
learning_engine_featurewise.action.index_23_explored 3896
learning_engine_featurewise.action.index_23_exploited 672
learning_engine_featurewise.action.index_30_explored 3882
learning_engine_featurewise.action.index_30_exploited 599
learning_engine_featurewise.action.index_32_explored 3779
learning_engine_featurewise.action.index_32_exploited 1668
learning_engine_featurewise.action.index_-1_explored 3849
learning_engine_featurewise.action.index_-1_exploited 5463860
learning_engine_featurewise.action.index_-3_explored 3805
learning_engine_featurewise.action.index_-3_exploited 12623428
learning_engine_featurewise.action.index_-6_explored 3871
learning_engine_featurewise.action.index_-6_exploited 2281090
learning_engine_featurewise.action.index_0_explored 3856
learning_engine_featurewise.action.index_0_exploited 1965985
learning_engine_featurewise.learn.called 29303690
learning_engine_featurewise.learn.su_skip_PC 0
learning_engine_featurewise.learn.su_skip_PC_Delta 0

learning_engine_featurewise.q_value_histogram.bucket_0 0
learning_engine_featurewise.q_value_histogram.bucket_1 195
learning_engine_featurewise.q_value_histogram.bucket_2 62674
learning_engine_featurewise.q_value_histogram.bucket_3 192357
learning_engine_featurewise.q_value_histogram.bucket_4 1813744
learning_engine_featurewise.q_value_histogram.bucket_5 2654785
learning_engine_featurewise.q_value_histogram.bucket_6 27217962
learning_engine_featurewise.q_value_histogram.bucket_7 0

learning_engine_featurewise.consensus.total 31941717
learning_engine_featurewise.consensus.feature_align_PC 29870414
learning_engine_featurewise.consensus.feature_align_PC_ratio 0.94
learning_engine_featurewise.consensus.feature_align_PC_Delta 28430126
learning_engine_featurewise.consensus.feature_align_PC_Delta_ratio 0.89
learning_engine_featurewise.consensus.feature_align_all 26359018
learning_engine_featurewise.consensus.feature_align_all_ratio 0.83

learning_engine_featurewise.feature_PC_min_weight 1000000.00000000
learning_engine_featurewise.feature_PC_max_weight 0.00000000
learning_engine_featurewise.feature_PC_Delta_min_weight 1000000.00000000
learning_engine_featurewise.feature_PC_Delta_max_weight 0.00000000
unique_pcs 97
unique_pages 140384
unique_trigger_pcs 49
total_bitmaps_seen 0
unique_bitmaps_seen 0

scooby_bw_epochs 4914587
scooby_bw_level_0 1687096
scooby_bw_level_1 708648
scooby_bw_level_2 458631
scooby_bw_level_3 2060212

scooby_ipc_epochs 0
scooby_ipc_level_0 0
scooby_ipc_level_1 0
scooby_ipc_level_2 0
scooby_ipc_level_3 0

scooby_cache_acc_epochs 1163576
scooby_cache_acc_level_0 819
scooby_cache_acc_level_1 8632
scooby_cache_acc_level_2 36944
scooby_cache_acc_level_3 78633
scooby_cache_acc_level_4 160872
scooby_cache_acc_level_5 290085
scooby_cache_acc_level_6 176853
scooby_cache_acc_level_7 82428
scooby_cache_acc_level_8 55504
scooby_cache_acc_level_9 272806

Channel_0_RQ_row_buffer_hit 29228590
Channel_0_RQ_row_buffer_miss 7854072
Channel_0_WQ_row_buffer_hit 274134
Channel_0_WQ_row_buffer_miss 1785892
Channel_0_WQ_full 0
Channel_0_dbus_congested 31487359

avg_congested_cycle 11

DRAM_bw_pochs 4914587
DRAM_bw_level_0 1687096
DRAM_bw_level_1 708648
DRAM_bw_level_2 458631
DRAM_bw_level_3 2060212
