*************************************************
   ChampSim Multicore Out-of-Order Simulator
   Last compiled: Apr  8 2025 10:20:20
*************************************************
parsing config file: /home/Pythia/config/pythia.ini

trace_0 /home/Pythia/traces/619.lbm_s-2677B.champsimtrace.xz
adding L2C_PREFETCHER: Scooby
Initialize SHIP state
warmup_instructions 100000000
simulation_instructions 500000000
champsim_seed 280
measure_ipc 0
measure_ipc_epoch 1000
measure_dram_bw 1
measure_dram_bw_epoch 256
measure_cache_acc 1
measure_cache_acc_epoch 1024
l1d_perfect 0
l2c_perfect 0
llc_perfect 0
l1d_semi_perfect 0
l2c_semi_perfect 0
llc_semi_perfect 0
semi_perfect_cache_page_buffer_size 64

num_cpus 1
cpu_freq 4000
dram_io_freq 2400
page_size 4096
block_size 64
max_read_per_cycle 8
max_fill_per_cycle 1
dram_channels 1
log2_dram_channels 0
dram_ranks 1
dram_banks 8
dram_rows 65536
dram_columns 128
dram_row_size 8
dram_size 4096
dram_pages 1048576

fetch_width 6
decode_width 6
exec_width 4
lq_width 2
sq_width 2
retire_width 4
scheduler_size 128
branch_mispredict_penalty 20
rob_size 256
lq_size 72
sq_size 56
num_instr_destinations_sparc 4
num_instr_destinations 2
num_instr_sources 4

itlb_set 16
itlb_way 8
itlb_rq_size 16
itlb_wq_size 16
itlb_pq_size 0
itlb_mshr_size 8
itlb_latency 1

dtlb_set 16
dtlb_way 4
dtlb_rq_size 16
dtlb_wq_size 16
dtlb_pq_size 0
dtlb_mshr_size 8
dtlb_latency 1

stlb_set 128
stlb_way 12
stlb_rq_size 32
stlb_wq_size 32
stlb_pq_size 0
stlb_mshr_size 16
stlb_latency 8

l1i_size 32
l1i_set 64
l1i_way 8
l1i_rq_size 64
l1i_wq_size 64
l1i_pq_size 8
l1i_mshr_size 8
l1i_latency 1

l1d_size 32
l1d_set 64
l1d_way 8
l1d_rq_size 64
l1d_wq_size 64
l1d_pq_size 8
l1d_mshr_size 16
l1d_latency 4

l2c_size 256
l2c_set 512
l2c_way 8
l2c_rq_size 32
l2c_wq_size 32
l2c_pq_size 32
l2c_mshr_size 32
l2c_latency 10

llc_size 2048
llc_set 2048
llc_way 16
llc_rq_size 32
llc_wq_size 32
llc_pq_size 32
llc_mshr_size 64
llc_latency 20

dram_channel_width 8
dram_wq_size 64
dram_rq_size 64
tRP 15
tRCD 15
tCAS 12.5
dram_dbus_turn_around_time 30
dram_write_high_wm 56
dram_write_low_wm 48
min_dram_writes_per_switch 16
dram_mtps 2400
dram_dbus_return_time 13

scooby_alpha 0.0065088
scooby_gamma 0.556301
scooby_epsilon 0.00182284
scooby_state_num_bits 10
scooby_max_states 1024
scooby_seed 200
scooby_policy EGreedy
scooby_learning_type SARSA
scooby_actions 1,3,4,5,10,11,12,22,23,30,32,-1,-3,-6,0,
scooby_max_actions 15
scooby_pt_size 256
scooby_st_size 64
scooby_max_pcs 5
scooby_max_offsets 5
scooby_max_deltas 5
scooby_reward_none -4
scooby_reward_incorrect -8
scooby_reward_correct_untimely 12
scooby_reward_correct_timely 20
scooby_brain_zero_init 0
scooby_enable_reward_all 0
scooby_enable_track_multiple 0
scooby_enable_reward_out_of_bounds 1
scooby_reward_out_of_bounds -12
scooby_state_type 1
scooby_state_hash_type 11
scooby_access_debug 0
scooby_print_access_debug 0
scooby_print_access_debug_pc deadbeef
scooby_print_access_debug_pc_count 0
scooby_print_trace 0
scooby_enable_state_action_stats 1
scooby_enable_reward_tracker_hit 0
scooby_reward_tracker_hit -2
scooby_enable_featurewise_engine 1
scooby_pref_degree 1
scooby_enable_dyn_degree 1
scooby_max_to_avg_q_thresholds 0.5,1,2,
scooby_dyn_degrees 1,2,4,4,
scooby_multi_deg_select_type 2
scooby_last_pref_offset_conf_thresholds 1,3,8,
scooby_dyn_degrees_type2 1,2,4,6,
scooby_action_tracker_size 2
scooby_high_bw_thresh 4
scooby_enable_hbw_reward 1
scooby_reward_hbw_correct_timely 20
scooby_reward_hbw_correct_untimely 12
scooby_reward_hbw_incorrect -14
scooby_reward_hbw_none -2
scooby_reward_hbw_out_of_bounds -12
scooby_reward_hbw_tracker_hit -2
scooby_last_pref_offset_conf_thresholds_hbw 1,3,8,
scooby_dyn_degrees_type2_hbw 1,2,4,6,

le_enable_trace 0
le_trace_interval 0
le_trace_file_name 
le_trace_state 0
le_enable_score_plot 0
le_plot_file_name 
le_plot_actions 
le_enable_action_trace 0
le_action_trace_interval 0
le_action_trace_name 
le_enable_action_plot 0

le_featurewise_active_features PC, PC_Delta
le_featurewise_num_tilings 3,3,
le_featurewise_num_tiles 128,128,
le_featurewise_hash_types 2,2,
le_featurewise_enable_tiling_offset 1,1,
le_featurewise_max_q_thresh 0.5
le_featurewise_enable_action_fallback 1
le_featurewise_feature_weights 1,1,
le_featurewise_enable_dynamic_weight 0
le_featurewise_weight_gradient 0.001
le_featurewise_disable_adjust_weight_all_features_align 1
le_featurewise_selective_update 0
le_featurewise_pooling_type 2
le_featurewise_enable_dyn_action_fallback 1
le_featurewise_bw_acc_check_level 1
le_featurewise_acc_thresh 2
le_featurewise_enable_trace 0
le_featurewise_trace_feature_type 0
le_featurewise_trace_feature 
le_featurewise_trace_interval 0
le_featurewise_trace_record_count 0
le_featurewise_trace_file_name 
le_featurewise_enable_score_plot 0
le_featurewise_plot_actions 
le_featurewise_plot_file_name 


[DEBUG] handlePhaseChange -> MAJOR reset (weights & contexts)
[DEBUG] handlePhaseChange() invoked with level = 2
[DEBUG] handlePhaseChange -> MAJOR reset (weights & contexts)
[DEBUG] handlePhaseChange() invoked with level = 2
[DEBUG] handlePhaseChange -> MAJOR reset (weights & contexts)
[DEBUG] handlePhaseChange() invoked with level = 2
[DEBUG] handlePhaseChange -> MAJOR reset (weights & contexts)
[DEBUG] handlePhaseChange() invoked with level = 2
[DEBUG] handlePhaseChange -> MAJOR reset (weights & contexts)
[DEBUG] handlePhaseChange() invoked with level = 2
[DEBUG] handlePhaseChange -> MAJOR reset (weights & contexts)
[DEBUG] handlePhaseChange() invoked with level = 2
[DEBUG] handlePhaseChange -> MAJOR reset (weights & contexts)
[DEBUG] handlePhaseChange() invoked with level = 2
[DEBUG] handlePhaseChange -> MAJOR reset (weights & contexts)
[DEBUG] handlePhaseChange() invoked with level = 2
[DEBUG] handlePhaseChange -> MAJOR reset (weights & contexts)
[DEBUG] handlePhaseChange() invoked with level = 2
[DEBUG] handlePhaseChange -> MAJOR reset (weights & contexts)
[DEBUG] handlePhaseChange() invoked with level = 2
[DEBUG] handlePhaseChange -> MAJOR reset (weights & contexts)
[DEBUG] handlePhaseChange() invoked with level = 2
[DEBUG] handlePhaseChange -> MAJOR reset (weights & contexts)
[DEBUG] handlePhaseChange() invoked with level = 2
[DEBUG] handlePhaseChange -> MAJOR reset (weights & contexts)
[DEBUG] handlePhaseChange() invoked with level = 2
[DEBUG] handlePhaseChange -> MAJOR reset (weights & contexts)
[DEBUG] handlePhaseChange() invoked with level = 2
[DEBUG] handlePhaseChange -> MAJOR reset (weights & contexts)
[DEBUG] handlePhaseChange() invoked with level = 2
[DEBUG] handlePhaseChange -> MAJOR reset (weights & contexts)
[DEBUG] handlePhaseChange() invoked with level = 2
[DEBUG] handlePhaseChange -> MAJOR reset (weights & contexts)
[DEBUG] handlePhaseChange() invoked with level = 2
[DEBUG] handlePhaseChange -> MAJOR reset (weights & contexts)
[DEBUG] handlePhaseChange() invoked with level = 2
[DEBUG] handlePhaseChange -> MAJOR reset (weights & contexts)
[DEBUG] handlePhaseChange() invoked with level = 2
[DEBUG] handlePhaseChange -> MAJOR reset (weights & contexts)
[DEBUG] handlePhaseChange() invoked with level = 2
[DEBUG] handlePhaseChange -> MAJOR reset (weights & contexts)
[DEBUG] handlePhaseChange() invoked with level = 2
[DEBUG] handlePhaseChange -> MAJOR reset (weights & contexts)
[DEBUG] handlePhaseChange() invoked with level = 2
[DEBUG] handlePhaseChange -> MAJOR reset (weights & contexts)
[DEBUG] handlePhaseChange() invoked with level = 2
[DEBUG] handlePhaseChange -> MAJOR reset (weights & contexts)
[DEBUG] handlePhaseChange() invoked with level = 2
[DEBUG] handlePhaseChange -> MAJOR reset (weights & contexts)
[DEBUG] handlePhaseChange() invoked with level = 2
[DEBUG] handlePhaseChange -> MAJOR reset (weights & contexts)
[DEBUG] handlePhaseChange() invoked with level = 2
[DEBUG] handlePhaseChange -> MAJOR reset (weights & contexts)
[DEBUG] handlePhaseChange() invoked with level = 2
[DEBUG] handlePhaseChange -> MAJOR reset (weights & contexts)
[DEBUG] handlePhaseChange() invoked with level = 2
[DEBUG] handlePhaseChange -> MAJOR reset (weights & contexts)
[DEBUG] handlePhaseChange() invoked with level = 2
[DEBUG] handlePhaseChange -> MAJOR reset (weights & contexts)
[DEBUG] handlePhaseChange() invoked with level = 2
[DEBUG] handlePhaseChange -> MAJOR reset (weights & contexts)
[DEBUG] handlePhaseChange() invoked with level = 2
[DEBUG] handlePhaseChange -> MAJOR reset (weights & contexts)
[DEBUG] handlePhaseChange() invoked with level = 2
[DEBUG] handlePhaseChange -> MAJOR reset (weights & contexts)
[DEBUG] handlePhaseChange() invoked with level = 2
[DEBUG] handlePhaseChange -> MAJOR reset (weights & contexts)
[DEBUG] handlePhaseChange() invoked with level = 2
[DEBUG] handlePhaseChange -> MAJOR reset (weights & contexts)
[DEBUG] handlePhaseChange() invoked with level = 2
[DEBUG] handlePhaseChange -> MAJOR reset (weights & contexts)
[DEBUG] handlePhaseChange() invoked with level = 2
[DEBUG] handlePhaseChange -> MAJOR reset (weights & contexts)
[DEBUG] handlePhaseChange() invoked with level = 2
[DEBUG] handlePhaseChange -> MAJOR reset (weights & contexts)
[DEBUG] handlePhaseChange() invoked with level = 2
[DEBUG] handlePhaseChange -> MAJOR reset (weights & contexts)
[DEBUG] handlePhaseChange() invoked with level = 2
[DEBUG] handlePhaseChange -> MAJOR reset (weights & contexts)
[DEBUG] handlePhaseChange() invoked with level = 2
[DEBUG] handlePhaseChange -> MAJOR reset (weights & contexts)
[DEBUG] handlePhaseChange() invoked with level = 2
[DEBUG] handlePhaseChange -> MAJOR reset (weights & contexts)
[DEBUG] handlePhaseChange() invoked with level = 2
[DEBUG] handlePhaseChange -> MAJOR reset (weights & contexts)
[DEBUG] handlePhaseChange() invoked with level = 2
[DEBUG] handlePhaseChange -> MAJOR reset (weights & contexts)
[DEBUG] handlePhaseChange() invoked with level = 2
[DEBUG] handlePhaseChange -> MAJOR reset (weights & contexts)
[DEBUG] handlePhaseChange() invoked with level = 2
[DEBUG] handlePhaseChange -> MAJOR reset (weights & contexts)
[DEBUG] handlePhaseChange() invoked with level = 2
[DEBUG] handlePhaseChange -> MAJOR reset (weights & contexts)
[DEBUG] handlePhaseChange() invoked with level = 2
[DEBUG] handlePhaseChange -> MAJOR reset (weights & contexts)
[DEBUG] handlePhaseChange() invoked with level = 2
[DEBUG] handlePhaseChange -> MAJOR reset (weights & contexts)
[DEBUG] handlePhaseChange() invoked with level = 2
[DEBUG] handlePhaseChange -> MAJOR reset (weights & contexts)
[DEBUG] handlePhaseChange() invoked with level = 2
[DEBUG] handlePhaseChange -> MAJOR reset (weights & contexts)
[DEBUG] handlePhaseChange() invoked with level = 2
[DEBUG] handlePhaseChange -> MAJOR reset (weights & contexts)
[DEBUG] handlePhaseChange() invoked with level = 2
[DEBUG] handlePhaseChange -> MAJOR reset (weights & contexts)
[DEBUG] handlePhaseChange() invoked with level = 2
[DEBUG] handlePhaseChange -> MAJOR reset (weights & contexts)
[DEBUG] handlePhaseChange() invoked with level = 2
[DEBUG] handlePhaseChange -> MAJOR reset (weights & contexts)
[DEBUG] handlePhaseChange() invoked with level = 2
[DEBUG] handlePhaseChange -> MAJOR reset (weights & contexts)
[DEBUG] handlePhaseChange() invoked with level = 2
[DEBUG] handlePhaseChange -> MAJOR reset (weights & contexts)
[DEBUG] handlePhaseChange() invoked with level = 2
[DEBUG] handlePhaseChange -> MAJOR reset (weights & contexts)
[DEBUG] handlePhaseChange() invoked with level = 2
[DEBUG] handlePhaseChange -> MAJOR reset (weights & contexts)
[DEBUG] handlePhaseChange() invoked with level = 2
[DEBUG] handlePhaseChange -> MAJOR reset (weights & contexts)
[DEBUG] handlePhaseChange() invoked with level = 2
[DEBUG] handlePhaseChange -> MAJOR reset (weights & contexts)
[DEBUG] handlePhaseChange() invoked with level = 2
[DEBUG] handlePhaseChange -> MAJOR reset (weights & contexts)
[DEBUG] handlePhaseChange() invoked with level = 2
[DEBUG] handlePhaseChange -> MAJOR reset (weights & contexts)
[DEBUG] handlePhaseChange() invoked with level = 2
[DEBUG] handlePhaseChange -> MAJOR reset (weights & contexts)
[DEBUG] handlePhaseChange() invoked with level = 2
[DEBUG] handlePhaseChange -> MAJOR reset (weights & contexts)
[DEBUG] handlePhaseChange() invoked with level = 2
[DEBUG] handlePhaseChange -> MAJOR reset (weights & contexts)
[DEBUG] handlePhaseChange() invoked with level = 2
[DEBUG] handlePhaseChange -> MAJOR reset (weights & contexts)
[DEBUG] handlePhaseChange() invoked with level = 2
[DEBUG] handlePhaseChange -> MAJOR reset (weights & contexts)
[DEBUG] handlePhaseChange() invoked with level = 2
[DEBUG] handlePhaseChange -> MAJOR reset (weights & contexts)
[DEBUG] handlePhaseChange() invoked with level = 2
[DEBUG] handlePhaseChange -> MAJOR reset (weights & contexts)
[DEBUG] handlePhaseChange() invoked with level = 2
[DEBUG] handlePhaseChange -> MAJOR reset (weights & contexts)
[DEBUG] handlePhaseChange() invoked with level = 2
[DEBUG] handlePhaseChange -> MAJOR reset (weights & contexts)
[DEBUG] handlePhaseChange() invoked with level = 2
[DEBUG] handlePhaseChange -> MAJOR reset (weights & contexts)
[DEBUG] handlePhaseChange() invoked with level = 2
[DEBUG] handlePhaseChange -> MAJOR reset (weights & contexts)
[DEBUG] handlePhaseChange() invoked with level = 2
[DEBUG] handlePhaseChange -> MAJOR reset (weights & contexts)
[DEBUG] handlePhaseChange() invoked with level = 2
[DEBUG] handlePhaseChange -> MAJOR reset (weights & contexts)
[DEBUG] handlePhaseChange() invoked with level = 2
[DEBUG] handlePhaseChange -> MAJOR reset (weights & contexts)
[DEBUG] handlePhaseChange() invoked with level = 2
[DEBUG] handlePhaseChange -> MAJOR reset (weights & contexts)
[DEBUG] handlePhaseChange() invoked with level = 2
[DEBUG] handlePhaseChange -> MAJOR reset (weights & contexts)
[DEBUG] handlePhaseChange() invoked with level = 2
[DEBUG] handlePhaseChange -> MAJOR reset (weights & contexts)
[DEBUG] handlePhaseChange() invoked with level = 2
[DEBUG] handlePhaseChange -> MAJOR reset (weights & contexts)
[DEBUG] handlePhaseChange() invoked with level = 2
[DEBUG] handlePhaseChange -> MAJOR reset (weights & contexts)
[DEBUG] handlePhaseChange() invoked with level = 2
[DEBUG] handlePhaseChange -> MAJOR reset (weights & contexts)
[DEBUG] handlePhaseChange() invoked with level = 2
[DEBUG] handlePhaseChange -> MAJOR reset (weights & contexts)
[DEBUG] handlePhaseChange() invoked with level = 2
[DEBUG] handlePhaseChange -> MAJOR reset (weights & contexts)
[DEBUG] handlePhaseChange() invoked with level = 2
[DEBUG] handlePhaseChange -> MAJOR reset (weights & contexts)
[DEBUG] handlePhaseChange() invoked with level = 2
[DEBUG] handlePhaseChange -> MAJOR reset (weights & contexts)
[DEBUG] handlePhaseChange() invoked with level = 2
[DEBUG] handlePhaseChange -> MAJOR reset (weights & contexts)
[DEBUG] handlePhaseChange() invoked with level = 2
[DEBUG] handlePhaseChange -> MAJOR reset (weights & contexts)
[DEBUG] handlePhaseChange() invoked with level = 2
[DEBUG] handlePhaseChange -> MAJOR reset (weights & contexts)
[DEBUG] handlePhaseChange() invoked with level = 2
[DEBUG] handlePhaseChange -> MAJOR reset (weights & contexts)
[DEBUG] handlePhaseChange() invoked with level = 2
[DEBUG] handlePhaseChange -> MAJOR reset (weights & contexts)
[DEBUG] handlePhaseChange() invoked with level = 2
[DEBUG] handlePhaseChange -> MAJOR reset (weights & contexts)
[DEBUG] handlePhaseChange() invoked with level = 2
[DEBUG] handlePhaseChange -> MAJOR reset (weights & contexts)
[DEBUG] handlePhaseChange() invoked with level = 2
[DEBUG] handlePhaseChange -> MAJOR reset (weights & contexts)
[DEBUG] handlePhaseChange() invoked with level = 2
[DEBUG] handlePhaseChange -> MAJOR reset (weights & contexts)
[DEBUG] handlePhaseChange() invoked with level = 2
[DEBUG] handlePhaseChange -> MAJOR reset (weights & contexts)
[DEBUG] handlePhaseChange() invoked with level = 2
[DEBUG] handlePhaseChange -> MAJOR reset (weights & contexts)
[DEBUG] handlePhaseChange() invoked with level = 2
[DEBUG] handlePhaseChange -> MAJOR reset (weights & contexts)
[DEBUG] handlePhaseChange() invoked with level = 2
[DEBUG] handlePhaseChange -> MAJOR reset (weights & contexts)
[DEBUG] handlePhaseChange() invoked with level = 2
[DEBUG] handlePhaseChange -> MAJOR reset (weights & contexts)
[DEBUG] handlePhaseChange -> MAJOR reset (weights & contexts)
[DEBUG] handlePhaseChange -> MAJOR reset (weights & contexts)
[DEBUG] handlePhaseChange -> MAJOR reset (weights & contexts)
[DEBUG] handlePhaseChange -> MAJOR reset (weights & contexts)
[DEBUG] handlePhaseChange -> MAJOR reset (weights & contexts)
[DEBUG] handlePhaseChange -> MAJOR reset (weights & contexts)
[DEBUG] handlePhaseChange -> MAJOR reset (weights & contexts)
[DEBUG] handlePhaseChange -> MAJOR reset (weights & contexts)
[DEBUG] handlePhaseChange -> MAJOR reset (weights & contexts)
[DEBUG] handlePhaseChange -> MAJOR reset (weights & contexts)
[DEBUG] handlePhaseChange -> MAJOR reset (weights & contexts)
[DEBUG] handlePhaseChange -> MAJOR reset (weights & contexts)
[DEBUG] handlePhaseChange -> MAJOR reset (weights & contexts)
[DEBUG] handlePhaseChange -> MAJOR reset (weights & contexts)
[DEBUG] handlePhaseChange -> MAJOR reset (weights & contexts)
[DEBUG] handlePhaseChange -> MAJOR reset (weights & contexts)
[DEBUG] handlePhaseChange -> MAJOR reset (weights & contexts)
[DEBUG] handlePhaseChange -> MAJOR reset (weights & contexts)
[DEBUG] handlePhaseChange -> MAJOR reset (weights & contexts)
[DEBUG] handlePhaseChange -> MAJOR reset (weights & contexts)
[DEBUG] handlePhaseChange -> MAJOR reset (weights & contexts)
[DEBUG] handlePhaseChange -> MAJOR reset (weights & contexts)
[DEBUG] handlePhaseChange -> MAJOR reset (weights & contexts)
[DEBUG] handlePhaseChange -> MAJOR reset (weights & contexts)
[DEBUG] handlePhaseChange -> MAJOR reset (weights & contexts)
[DEBUG] handlePhaseChange -> MAJOR reset (weights & contexts)
[DEBUG] handlePhaseChange -> MAJOR reset (weights & contexts)
[DEBUG] handlePhaseChange -> MAJOR reset (weights & contexts)
[DEBUG] handlePhaseChange -> MAJOR reset (weights & contexts)
[DEBUG] handlePhaseChange -> MAJOR reset (weights & contexts)
[DEBUG] handlePhaseChange -> MAJOR reset (weights & contexts)
[DEBUG] handlePhaseChange -> MAJOR reset (weights & contexts)
[DEBUG] handlePhaseChange -> MAJOR reset (weights & contexts)
[DEBUG] handlePhaseChange -> MAJOR reset (weights & contexts)
[DEBUG] handlePhaseChange -> MAJOR reset (weights & contexts)
[DEBUG] handlePhaseChange -> MAJOR reset (weights & contexts)
[DEBUG] handlePhaseChange -> MAJOR reset (weights & contexts)
[DEBUG] handlePhaseChange -> MAJOR reset (weights & contexts)
[DEBUG] handlePhaseChange -> MAJOR reset (weights & contexts)
[DEBUG] handlePhaseChange -> MAJOR reset (weights & contexts)
[DEBUG] handlePhaseChange -> MAJOR reset (weights & contexts)
[DEBUG] handlePhaseChange -> MAJOR reset (weights & contexts)
[DEBUG] handlePhaseChange -> MAJOR reset (weights & contexts)
[DEBUG] handlePhaseChange -> MAJOR reset (weights & contexts)
[DEBUG] handlePhaseChange -> MAJOR reset (weights & contexts)
[DEBUG] handlePhaseChange -> MAJOR reset (weights & contexts)
[DEBUG] handlePhaseChange -> MAJOR reset (weights & contexts)
[DEBUG] handlePhaseChange -> MAJOR reset (weights & contexts)
[DEBUG] handlePhaseChange -> MAJOR reset (weights & contexts)
[DEBUG] handlePhaseChange -> MAJOR reset (weights & contexts)
[DEBUG] handlePhaseChange -> MAJOR reset (weights & contexts)
[DEBUG] handlePhaseChange -> MAJOR reset (weights & contexts)
[DEBUG] handlePhaseChange -> MAJOR reset (weights & contexts)
[DEBUG] handlePhaseChange -> MAJOR reset (weights & contexts)
[DEBUG] handlePhaseChange -> MAJOR reset (weights & contexts)
[DEBUG] handlePhaseChange -> MAJOR reset (weights & contexts)
[DEBUG] handlePhaseChange -> MAJOR reset (weights & contexts)
[DEBUG] handlePhaseChange -> MAJOR reset (weights & contexts)
[DEBUG] handlePhaseChange -> MAJOR reset (weights & contexts)
[DEBUG] handlePhaseChange -> MAJOR reset (weights & contexts)
[DEBUG] handlePhaseChange -> MAJOR reset (weights & contexts)
[DEBUG] handlePhaseChange -> MAJOR reset (weights & contexts)
[DEBUG] handlePhaseChange -> MAJOR reset (weights & contexts)
[DEBUG] handlePhaseChange -> MAJOR reset (weights & contexts)
[DEBUG] handlePhaseChange -> MAJOR reset (weights & contexts)
[DEBUG] handlePhaseChange -> MAJOR reset (weights & contexts)
[DEBUG] handlePhaseChange -> MAJOR reset (weights & contexts)
[DEBUG] handlePhaseChange -> MAJOR reset (weights & contexts)
[DEBUG] handlePhaseChange -> MAJOR reset (weights & contexts)
[DEBUG] handlePhaseChange -> MAJOR reset (weights & contexts)
[DEBUG] handlePhaseChange -> MAJOR reset (weights & contexts)
[DEBUG] handlePhaseChange -> MAJOR reset (weights & contexts)
[DEBUG] handlePhaseChange -> MAJOR reset (weights & contexts)
[DEBUG] handlePhaseChange -> MAJOR reset (weights & contexts)
[DEBUG] handlePhaseChange -> MAJOR reset (weights & contexts)
[DEBUG] handlePhaseChange -> MAJOR reset (weights & contexts)
[DEBUG] handlePhaseChange -> MAJOR reset (weights & contexts)
[DEBUG] handlePhaseChange -> MAJOR reset (weights & contexts)
[DEBUG] handlePhaseChange -> MAJOR reset (weights & contexts)
[DEBUG] handlePhaseChange -> MAJOR reset (weights & contexts)
[DEBUG] handlePhaseChange -> MAJOR reset (weights & contexts)
[DEBUG] handlePhaseChange -> MAJOR reset (weights & contexts)
[DEBUG] handlePhaseChange -> MAJOR reset (weights & contexts)
[DEBUG] handlePhaseChange -> MAJOR reset (weights & contexts)
[DEBUG] handlePhaseChange -> MAJOR reset (weights & contexts)
[DEBUG] handlePhaseChange -> MAJOR reset (weights & contexts)
[DEBUG] handlePhaseChange -> MAJOR reset (weights & contexts)
[DEBUG] handlePhaseChange -> MAJOR reset (weights & contexts)
[DEBUG] handlePhaseChange -> MAJOR reset (weights & contexts)
[DEBUG] handlePhaseChange -> MAJOR reset (weights & contexts)
[DEBUG] handlePhaseChange -> MAJOR reset (weights & contexts)
[DEBUG] handlePhaseChange -> MAJOR reset (weights & contexts)
[DEBUG] handlePhaseChange -> MAJOR reset (weights & contexts)
[DEBUG] handlePhaseChange -> MAJOR reset (weights & contexts)
[DEBUG] handlePhaseChange -> MAJOR reset (weights & contexts)
[DEBUG] handlePhaseChange -> MAJOR reset (weights & contexts)
[DEBUG] handlePhaseChange -> MAJOR reset (weights & contexts)
[DEBUG] handlePhaseChange -> MAJOR reset (weights & contexts)
[DEBUG] handlePhaseChange -> MAJOR reset (weights & contexts)
[DEBUG] handlePhaseChange -> MAJOR reset (weights & contexts)
[DEBUG] handlePhaseChange -> MAJOR reset (weights & contexts)
[DEBUG] handlePhaseChange -> MAJOR reset (weights & contexts)
[DEBUG] handlePhaseChange -> MAJOR reset (weights & contexts)
[DEBUG] handlePhaseChange -> MAJOR reset (weights & contexts)
[DEBUG] handlePhaseChange -> MAJOR reset (weights & contexts)
[DEBUG] handlePhaseChange -> MAJOR reset (weights & contexts)
[DEBUG] handlePhaseChange -> MAJOR reset (weights & contexts)
[DEBUG] handlePhaseChange -> MAJOR reset (weights & contexts)
[DEBUG] handlePhaseChange -> MAJOR reset (weights & contexts)
[DEBUG] handlePhaseChange -> MAJOR reset (weights & contexts)
[DEBUG] handlePhaseChange -> MAJOR reset (weights & contexts)
[DEBUG] handlePhaseChange -> MAJOR reset (weights & contexts)
[DEBUG] handlePhaseChange -> MAJOR reset (weights & contexts)
[DEBUG] handlePhaseChange -> MAJOR reset (weights & contexts)
[DEBUG] handlePhaseChange -> MAJOR reset (weights & contexts)
[DEBUG] handlePhaseChange -> MAJOR reset (weights & contexts)
[DEBUG] handlePhaseChange -> MAJOR reset (weights & contexts)
[DEBUG] handlePhaseChange -> MAJOR reset (weights & contexts)
[DEBUG] handlePhaseChange -> MAJOR reset (weights & contexts)
[DEBUG] handlePhaseChange -> MAJOR reset (weights & contexts)
[DEBUG] handlePhaseChange -> MAJOR reset (weights & contexts)
[DEBUG] handlePhaseChange -> MAJOR reset (weights & contexts)
[DEBUG] handlePhaseChange -> MAJOR reset (weights & contexts)
[DEBUG] handlePhaseChange -> MAJOR reset (weights & contexts)
[DEBUG] handlePhaseChange -> MAJOR reset (weights & contexts)
[DEBUG] handlePhaseChange -> MAJOR reset (weights & contexts)
[DEBUG] handlePhaseChange -> MAJOR reset (weights & contexts)
[DEBUG] handlePhaseChange -> MAJOR reset (weights & contexts)
[DEBUG] handlePhaseChange -> MAJOR reset (weights & contexts)
[DEBUG] handlePhaseChange -> MAJOR reset (weights & contexts)
[DEBUG] handlePhaseChange -> MAJOR reset (weights & contexts)
[DEBUG] handlePhaseChange -> MAJOR reset (weights & contexts)
[DEBUG] handlePhaseChange -> MAJOR reset (weights & contexts)
[DEBUG] handlePhaseChange -> MAJOR reset (weights & contexts)
[DEBUG] handlePhaseChange -> MAJOR reset (weights & contexts)
[DEBUG] handlePhaseChange -> MAJOR reset (weights & contexts)
[DEBUG] handlePhaseChange -> MAJOR reset (weights & contexts)
[DEBUG] handlePhaseChange -> MAJOR reset (weights & contexts)
[DEBUG] handlePhaseChange -> MAJOR reset (weights & contexts)
[DEBUG] handlePhaseChange -> MAJOR reset (weights & contexts)
[DEBUG] handlePhaseChange -> MAJOR reset (weights & contexts)
[DEBUG] handlePhaseChange -> MAJOR reset (weights & contexts)
[DEBUG] handlePhaseChange -> MAJOR reset (weights & contexts)
[DEBUG] handlePhaseChange -> MAJOR reset (weights & contexts)
[DEBUG] handlePhaseChange -> MAJOR reset (weights & contexts)
[DEBUG] handlePhaseChange -> MAJOR reset (weights & contexts)
[DEBUG] handlePhaseChange -> MAJOR reset (weights & contexts)
[DEBUG] handlePhaseChange -> MAJOR reset (weights & contexts)
[DEBUG] handlePhaseChange -> MAJOR reset (weights & contexts)
[DEBUG] handlePhaseChange -> MAJOR reset (weights & contexts)
[DEBUG] handlePhaseChange -> MAJOR reset (weights & contexts)
[DEBUG] handlePhaseChange -> MAJOR reset (weights & contexts)
[DEBUG] handlePhaseChange -> MAJOR reset (weights & contexts)
[DEBUG] handlePhaseChange -> MAJOR reset (weights & contexts)
[DEBUG] handlePhaseChange -> MAJOR reset (weights & contexts)
[DEBUG] handlePhaseChange -> MAJOR reset (weights & contexts)
[DEBUG] handlePhaseChange -> MAJOR reset (weights & contexts)
[DEBUG] handlePhaseChange -> MAJOR reset (weights & contexts)
[DEBUG] handlePhaseChange -> MAJOR reset (weights & contexts)
[DEBUG] handlePhaseChange -> MAJOR reset (weights & contexts)
[DEBUG] handlePhaseChange -> MAJOR reset (weights & contexts)
[DEBUG] handlePhaseChange -> MAJOR reset (weights & contexts)
[DEBUG] handlePhaseChange -> MAJOR reset (weights & contexts)
[DEBUG] handlePhaseChange -> MAJOR reset (weights & contexts)
[DEBUG] handlePhaseChange -> MAJOR reset (weights & contexts)
[DEBUG] handlePhaseChange -> MAJOR reset (weights & contexts)
[DEBUG] handlePhaseChange -> MAJOR reset (weights & contexts)
[DEBUG] handlePhaseChange -> MAJOR reset (weights & contexts)
[DEBUG] handlePhaseChange -> MAJOR reset (weights & contexts)
[DEBUG] handlePhaseChange -> MAJOR reset (weights & contexts)
[DEBUG] handlePhaseChange -> MAJOR reset (weights & contexts)
[DEBUG] handlePhaseChange -> MAJOR reset (weights & contexts)
[DEBUG] handlePhaseChange -> MAJOR reset (weights & contexts)
[DEBUG] handlePhaseChange -> MAJOR reset (weights & contexts)
[DEBUG] handlePhaseChange -> MAJOR reset (weights & contexts)
[DEBUG] handlePhaseChange -> MAJOR reset (weights & contexts)
[DEBUG] handlePhaseChange -> MAJOR reset (weights & contexts)
[DEBUG] handlePhaseChange -> MAJOR reset (weights & contexts)
[DEBUG] handlePhaseChange -> MAJOR reset (weights & contexts)
[DEBUG] handlePhaseChange -> MAJOR reset (weights & contexts)
[DEBUG] handlePhaseChange -> MAJOR reset (weights & contexts)
[DEBUG] handlePhaseChange -> MAJOR reset (weights & contexts)
[DEBUG] handlePhaseChange -> MAJOR reset (weights & contexts)
[DEBUG] handlePhaseChange -> MAJOR reset (weights & contexts)
[DEBUG] handlePhaseChange -> MAJOR reset (weights & contexts)
[DEBUG] handlePhaseChange -> MAJOR reset (weights & contexts)
[DEBUG] handlePhaseChange -> MAJOR reset (weights & contexts)
[DEBUG] handlePhaseChange -> MAJOR reset (weights & contexts)
[DEBUG] handlePhaseChange -> MAJOR reset (weights & contexts)
[DEBUG] handlePhaseChange -> MAJOR reset (weights & contexts)
[DEBUG] handlePhaseChange -> MAJOR reset (weights & contexts)
[DEBUG] handlePhaseChange -> MAJOR reset (weights & contexts)
[DEBUG] handlePhaseChange -> MAJOR reset (weights & contexts)
[DEBUG] handlePhaseChange -> MAJOR reset (weights & contexts)
[DEBUG] handlePhaseChange -> MAJOR reset (weights & contexts)
[DEBUG] handlePhaseChange -> MAJOR reset (weights & contexts)
[DEBUG] handlePhaseChange -> MAJOR reset (weights & contexts)
[DEBUG] handlePhaseChange -> MAJOR reset (weights & contexts)
[DEBUG] handlePhaseChange -> MAJOR reset (weights & contexts)
[DEBUG] handlePhaseChange -> MAJOR reset (weights & contexts)
[DEBUG] handlePhaseChange -> MAJOR reset (weights & contexts)
[DEBUG] handlePhaseChange -> MAJOR reset (weights & contexts)
[DEBUG] handlePhaseChange -> MAJOR reset (weights & contexts)
[DEBUG] handlePhaseChange -> MAJOR reset (weights & contexts)
[DEBUG] handlePhaseChange -> MAJOR reset (weights & contexts)
[DEBUG] handlePhaseChange -> MAJOR reset (weights & contexts)
[DEBUG] handlePhaseChange -> MAJOR reset (weights & contexts)
[DEBUG] handlePhaseChange -> MAJOR reset (weights & contexts)
[DEBUG] handlePhaseChange -> MAJOR reset (weights & contexts)
[DEBUG] handlePhaseChange -> MAJOR reset (weights & contexts)
[DEBUG] handlePhaseChange -> MAJOR reset (weights & contexts)
[DEBUG] handlePhaseChange -> MAJOR reset (weights & contexts)
[DEBUG] handlePhaseChange -> MAJOR reset (weights & contexts)
[DEBUG] handlePhaseChange -> MAJOR reset (weights & contexts)
[DEBUG] handlePhaseChange -> MAJOR reset (weights & contexts)
[DEBUG] handlePhaseChange -> MAJOR reset (weights & contexts)
[DEBUG] handlePhaseChange -> MAJOR reset (weights & contexts)
[DEBUG] handlePhaseChange -> MAJOR reset (weights & contexts)
[DEBUG] handlePhaseChange -> MAJOR reset (weights & contexts)
[DEBUG] handlePhaseChange -> MAJOR reset (weights & contexts)
[DEBUG] handlePhaseChange -> MAJOR reset (weights & contexts)
[DEBUG] handlePhaseChange -> MAJOR reset (weights & contexts)
[DEBUG] handlePhaseChange -> MAJOR reset (weights & contexts)
[DEBUG] handlePhaseChange -> MAJOR reset (weights & contexts)
[DEBUG] handlePhaseChange -> MAJOR reset (weights & contexts)
[DEBUG] handlePhaseChange -> MAJOR reset (weights & contexts)
[DEBUG] handlePhaseChange -> MAJOR reset (weights & contexts)
[DEBUG] handlePhaseChange -> MAJOR reset (weights & contexts)
[DEBUG] handlePhaseChange -> MAJOR reset (weights & contexts)
[DEBUG] handlePhaseChange -> MAJOR reset (weights & contexts)
[DEBUG] handlePhaseChange -> MAJOR reset (weights & contexts)
[DEBUG] handlePhaseChange -> MAJOR reset (weights & contexts)
[DEBUG] handlePhaseChange -> MAJOR reset (weights & contexts)
[DEBUG] handlePhaseChange -> MAJOR reset (weights & contexts)
[DEBUG] handlePhaseChange -> MAJOR reset (weights & contexts)
[DEBUG] handlePhaseChange -> MAJOR reset (weights & contexts)
[DEBUG] handlePhaseChange -> MAJOR reset (weights & contexts)
[DEBUG] handlePhaseChange -> MAJOR reset (weights & contexts)
[DEBUG] handlePhaseChange -> MAJOR reset (weights & contexts)
[DEBUG] handlePhaseChange -> MAJOR reset (weights & contexts)
[DEBUG] handlePhaseChange -> MAJOR reset (weights & contexts)
[DEBUG] handlePhaseChange -> MAJOR reset (weights & contexts)
[DEBUG] handlePhaseChange -> MAJOR reset (weights & contexts)
[DEBUG] handlePhaseChange -> MAJOR reset (weights & contexts)
[DEBUG] handlePhaseChange -> MAJOR reset (weights & contexts)
[DEBUG] handlePhaseChange -> MAJOR reset (weights & contexts)
[DEBUG] handlePhaseChange -> MAJOR reset (weights & contexts)
[DEBUG] handlePhaseChange -> MAJOR reset (weights & contexts)
[DEBUG] handlePhaseChange -> MAJOR reset (weights & contexts)
[DEBUG] handlePhaseChange -> MAJOR reset (weights & contexts)
[DEBUG] handlePhaseChange -> MAJOR reset (weights & contexts)
[DEBUG] handlePhaseChange -> MAJOR reset (weights & contexts)
[DEBUG] handlePhaseChange -> MAJOR reset (weights & contexts)
[DEBUG] handlePhaseChange -> MAJOR reset (weights & contexts)
[DEBUG] handlePhaseChange -> MAJOR reset (weights & contexts)
[DEBUG] handlePhaseChange -> MAJOR reset (weights & contexts)
[DEBUG] handlePhaseChange -> MAJOR reset (weights & contexts)
[DEBUG] handlePhaseChange -> MAJOR reset (weights & contexts)
[DEBUG] handlePhaseChange -> MAJOR reset (weights & contexts)
[DEBUG] handlePhaseChange -> MAJOR reset (weights & contexts)
[DEBUG] handlePhaseChange -> MAJOR reset (weights & contexts)
[DEBUG] handlePhaseChange -> MAJOR reset (weights & contexts)
[DEBUG] handlePhaseChange -> MAJOR reset (weights & contexts)
[DEBUG] handlePhaseChange -> MAJOR reset (weights & contexts)
[DEBUG] handlePhaseChange -> MAJOR reset (weights & contexts)
[DEBUG] handlePhaseChange -> MAJOR reset (weights & contexts)
[DEBUG] handlePhaseChange -> MAJOR reset (weights & contexts)
[DEBUG] handlePhaseChange -> MAJOR reset (weights & contexts)
[DEBUG] handlePhaseChange -> MAJOR reset (weights & contexts)
[DEBUG] handlePhaseChange -> MAJOR reset (weights & contexts)
[DEBUG] handlePhaseChange -> MAJOR reset (weights & contexts)
[DEBUG] handlePhaseChange -> MAJOR reset (weights & contexts)
[DEBUG] handlePhaseChange -> MAJOR reset (weights & contexts)
[DEBUG] handlePhaseChange -> MAJOR reset (weights & contexts)
[DEBUG] handlePhaseChange -> MAJOR reset (weights & contexts)
[DEBUG] handlePhaseChange -> MAJOR reset (weights & contexts)
[DEBUG] handlePhaseChange -> MAJOR reset (weights & contexts)
[DEBUG] handlePhaseChange -> MAJOR reset (weights & contexts)
[DEBUG] handlePhaseChange -> MAJOR reset (weights & contexts)
[DEBUG] handlePhaseChange -> MAJOR reset (weights & contexts)
[DEBUG] handlePhaseChange -> MAJOR reset (weights & contexts)
[DEBUG] handlePhaseChange -> MAJOR reset (weights & contexts)
[DEBUG] handlePhaseChange -> MAJOR reset (weights & contexts)
[DEBUG] handlePhaseChange -> MAJOR reset (weights & contexts)
[DEBUG] handlePhaseChange -> MAJOR reset (weights & contexts)
[DEBUG] handlePhaseChange -> MAJOR reset (weights & contexts)
[DEBUG] handlePhaseChange -> MAJOR reset (weights & contexts)
[DEBUG] handlePhaseChange -> MAJOR reset (weights & contexts)
[DEBUG] handlePhaseChange -> MAJOR reset (weights & contexts)
[DEBUG] handlePhaseChange -> MAJOR reset (weights & contexts)
[DEBUG] handlePhaseChange -> MAJOR reset (weights & contexts)
[DEBUG] handlePhaseChange -> MAJOR reset (weights & contexts)
[DEBUG] handlePhaseChange -> MAJOR reset (weights & contexts)
[DEBUG] handlePhaseChange -> MAJOR reset (weights & contexts)
[DEBUG] handlePhaseChange -> MAJOR reset (weights & contexts)
[DEBUG] handlePhaseChange -> MAJOR reset (weights & contexts)
[DEBUG] handlePhaseChange -> MAJOR reset (weights & contexts)
[DEBUG] handlePhaseChange -> MAJOR reset (weights & contexts)
[DEBUG] handlePhaseChange -> MAJOR reset (weights & contexts)
[DEBUG] handlePhaseChange -> MAJOR reset (weights & contexts)
[DEBUG] handlePhaseChange -> MAJOR reset (weights & contexts)
[DEBUG] handlePhaseChange -> MAJOR reset (weights & contexts)
[DEBUG] handlePhaseChange -> MAJOR reset (weights & contexts)
[DEBUG] handlePhaseChange -> MAJOR reset (weights & contexts)
[DEBUG] handlePhaseChange -> MAJOR reset (weights & contexts)
[DEBUG] handlePhaseChange -> MAJOR reset (weights & contexts)
[DEBUG] handlePhaseChange -> MAJOR reset (weights & contexts)
[DEBUG] handlePhaseChange -> MAJOR reset (weights & contexts)
[DEBUG] handlePhaseChange -> MAJOR reset (weights & contexts)
[DEBUG] handlePhaseChange -> MAJOR reset (weights & contexts)
[DEBUG] handlePhaseChange -> MAJOR reset (weights & contexts)
[DEBUG] handlePhaseChange -> MAJOR reset (weights & contexts)
[DEBUG] handlePhaseChange -> MAJOR reset (weights & contexts)
[DEBUG] handlePhaseChange -> MAJOR reset (weights & contexts)
[DEBUG] handlePhaseChange -> MAJOR reset (weights & contexts)
[DEBUG] handlePhaseChange -> MAJOR reset (weights & contexts)
[DEBUG] handlePhaseChange -> MAJOR reset (weights & contexts)
[DEBUG] handlePhaseChange -> MAJOR reset (weights & contexts)
[DEBUG] handlePhaseChange -> MAJOR reset (weights & contexts)
[DEBUG] handlePhaseChange -> MAJOR reset (weights & contexts)
[DEBUG] handlePhaseChange -> MAJOR reset (weights & contexts)
[DEBUG] handlePhaseChange -> MAJOR reset (weights & contexts)
[DEBUG] handlePhaseChange -> MAJOR reset (weights & contexts)
[DEBUG] handlePhaseChange -> MAJOR reset (weights & contexts)
[DEBUG] handlePhaseChange -> MAJOR reset (weights & contexts)
[DEBUG] handlePhaseChange -> MAJOR reset (weights & contexts)
[DEBUG] handlePhaseChange -> MAJOR reset (weights & contexts)
[DEBUG] handlePhaseChange -> MAJOR reset (weights & contexts)
[DEBUG] handlePhaseChange -> MAJOR reset (weights & contexts)
[DEBUG] handlePhaseChange -> MAJOR reset (weights & contexts)
[DEBUG] handlePhaseChange -> MAJOR reset (weights & contexts)
[DEBUG] handlePhaseChange -> MAJOR reset (weights & contexts)
[DEBUG] handlePhaseChange -> MAJOR reset (weights & contexts)
[DEBUG] handlePhaseChange -> MAJOR reset (weights & contexts)
[DEBUG] handlePhaseChange -> MAJOR reset (weights & contexts)
[DEBUG] handlePhaseChange -> MAJOR reset (weights & contexts)
[DEBUG] handlePhaseChange -> MAJOR reset (weights & contexts)
[DEBUG] handlePhaseChange -> MAJOR reset (weights & contexts)
[DEBUG] handlePhaseChange -> MAJOR reset (weights & contexts)
[DEBUG] handlePhaseChange -> MAJOR reset (weights & contexts)
[DEBUG] handlePhaseChange -> MAJOR reset (weights & contexts)
[DEBUG] handlePhaseChange -> MAJOR reset (weights & contexts)
[DEBUG] handlePhaseChange -> MAJOR reset (weights & contexts)
[DEBUG] handlePhaseChange -> MAJOR reset (weights & contexts)
[DEBUG] handlePhaseChange -> MAJOR reset (weights & contexts)
[DEBUG] handlePhaseChange -> MAJOR reset (weights & contexts)
[DEBUG] handlePhaseChange -> MAJOR reset (weights & contexts)
[DEBUG] handlePhaseChange -> MAJOR reset (weights & contexts)
[DEBUG] handlePhaseChange -> MAJOR reset (weights & contexts)
[DEBUG] handlePhaseChange -> MAJOR reset (weights & contexts)
[DEBUG] handlePhaseChange -> MAJOR reset (weights & contexts)
[DEBUG] handlePhaseChange -> MAJOR reset (weights & contexts)
[DEBUG] handlePhaseChange -> MAJOR reset (weights & contexts)
[DEBUG] handlePhaseChange -> MAJOR reset (weights & contexts)
[DEBUG] handlePhaseChange -> MAJOR reset (weights & contexts)
[DEBUG] handlePhaseChange -> MAJOR reset (weights & contexts)
[DEBUG] handlePhaseChange -> MAJOR reset (weights & contexts)
[DEBUG] handlePhaseChange -> MAJOR reset (weights & contexts)
[DEBUG] handlePhaseChange -> MAJOR reset (weights & contexts)
[DEBUG] handlePhaseChange -> MAJOR reset (weights & contexts)
[DEBUG] handlePhaseChange -> MAJOR reset (weights & contexts)
[DEBUG] handlePhaseChange -> MAJOR reset (weights & contexts)
[DEBUG] handlePhaseChange -> MAJOR reset (weights & contexts)
[DEBUG] handlePhaseChange -> MAJOR reset (weights & contexts)
[DEBUG] handlePhaseChange -> MAJOR reset (weights & contexts)
[DEBUG] handlePhaseChange -> MAJOR reset (weights & contexts)
[DEBUG] handlePhaseChange -> MAJOR reset (weights & contexts)
[DEBUG] handlePhaseChange -> MAJOR reset (weights & contexts)
[DEBUG] handlePhaseChange -> MAJOR reset (weights & contexts)
[DEBUG] handlePhaseChange -> MAJOR reset (weights & contexts)
[DEBUG] handlePhaseChange -> MAJOR reset (weights & contexts)
[DEBUG] handlePhaseChange -> MAJOR reset (weights & contexts)
[DEBUG] handlePhaseChange -> MAJOR reset (weights & contexts)
[DEBUG] handlePhaseChange -> MAJOR reset (weights & contexts)
[DEBUG] handlePhaseChange -> MAJOR reset (weights & contexts)
[DEBUG] handlePhaseChange -> MAJOR reset (weights & contexts)
[DEBUG] handlePhaseChange -> MAJOR reset (weights & contexts)
[DEBUG] handlePhaseChange -> MAJOR reset (weights & contexts)
[DEBUG] handlePhaseChange -> MAJOR reset (weights & contexts)
[DEBUG] handlePhaseChange -> MAJOR reset (weights & contexts)
[DEBUG] handlePhaseChange -> MAJOR reset (weights & contexts)
[DEBUG] handlePhaseChange -> MAJOR reset (weights & contexts)
[DEBUG] handlePhaseChange -> MAJOR reset (weights & contexts)
[DEBUG] handlePhaseChange -> MAJOR reset (weights & contexts)
[DEBUG] handlePhaseChange -> MAJOR reset (weights & contexts)
[DEBUG] handlePhaseChange -> MAJOR reset (weights & contexts)
[DEBUG] handlePhaseChange -> MAJOR reset (weights & contexts)
[DEBUG] handlePhaseChange -> MAJOR reset (weights & contexts)
[DEBUG] handlePhaseChange -> MAJOR reset (weights & contexts)
[DEBUG] handlePhaseChange -> MAJOR reset (weights & contexts)
[DEBUG] handlePhaseChange -> MAJOR reset (weights & contexts)
[DEBUG] handlePhaseChange -> MAJOR reset (weights & contexts)
[DEBUG] handlePhaseChange -> MAJOR reset (weights & contexts)
[DEBUG] handlePhaseChange -> MAJOR reset (weights & contexts)
[DEBUG] handlePhaseChange -> MAJOR reset (weights & contexts)
[DEBUG] handlePhaseChange -> MAJOR reset (weights & contexts)
[DEBUG] handlePhaseChange -> MAJOR reset (weights & contexts)
[DEBUG] handlePhaseChange -> MAJOR reset (weights & contexts)
[DEBUG] handlePhaseChange -> MAJOR reset (weights & contexts)
[DEBUG] handlePhaseChange -> MAJOR reset (weights & contexts)
[DEBUG] handlePhaseChange -> MAJOR reset (weights & contexts)
[DEBUG] handlePhaseChange -> MAJOR reset (weights & contexts)
[DEBUG] handlePhaseChange -> MAJOR reset (weights & contexts)
[DEBUG] handlePhaseChange -> MAJOR reset (weights & contexts)
[DEBUG] handlePhaseChange -> MAJOR reset (weights & contexts)
[DEBUG] handlePhaseChange -> MAJOR reset (weights & contexts)
[DEBUG] handlePhaseChange -> MAJOR reset (weights & contexts)
[DEBUG] handlePhaseChange -> MAJOR reset (weights & contexts)
[DEBUG] handlePhaseChange -> MAJOR reset (weights & contexts)
[DEBUG] handlePhaseChange -> MAJOR reset (weights & contexts)
[DEBUG] handlePhaseChange -> MAJOR reset (weights & contexts)
[DEBUG] handlePhaseChange -> MAJOR reset (weights & contexts)
[DEBUG] handlePhaseChange -> MAJOR reset (weights & contexts)
[DEBUG] handlePhaseChange -> MAJOR reset (weights & contexts)
[DEBUG] handlePhaseChange -> MAJOR reset (weights & contexts)
[DEBUG] handlePhaseChange -> MAJOR reset (weights & contexts)
[DEBUG] handlePhaseChange -> MAJOR reset (weights & contexts)
[DEBUG] handlePhaseChange -> MAJOR reset (weights & contexts)
[DEBUG] handlePhaseChange -> MAJOR reset (weights & contexts)
[DEBUG] handlePhaseChange -> MAJOR reset (weights & contexts)
[DEBUG] handlePhaseChange -> MAJOR reset (weights & contexts)
[DEBUG] handlePhaseChange -> MAJOR reset (weights & contexts)
[DEBUG] handlePhaseChange -> MAJOR reset (weights & contexts)
[DEBUG] handlePhaseChange -> MAJOR reset (weights & contexts)
[DEBUG] handlePhaseChange -> MAJOR reset (weights & contexts)
[DEBUG] handlePhaseChange -> MAJOR reset (weights & contexts)
[DEBUG] handlePhaseChange -> MAJOR reset (weights & contexts)
[DEBUG] handlePhaseChange -> MAJOR reset (weights & contexts)
[DEBUG] handlePhaseChange -> MAJOR reset (weights & contexts)
[DEBUG] handlePhaseChange -> MAJOR reset (weights & contexts)
[DEBUG] handlePhaseChange -> MAJOR reset (weights & contexts)
[DEBUG] handlePhaseChange -> MAJOR reset (weights & contexts)
[DEBUG] handlePhaseChange -> MAJOR reset (weights & contexts)
[DEBUG] handlePhaseChange -> MAJOR reset (weights & contexts)
[DEBUG] handlePhaseChange -> MAJOR reset (weights & contexts)
[DEBUG] handlePhaseChange -> MAJOR reset (weights & contexts)
[DEBUG] handlePhaseChange -> MAJOR reset (weights & contexts)
[DEBUG] handlePhaseChange -> MAJOR reset (weights & contexts)
[DEBUG] handlePhaseChange -> MAJOR reset (weights & contexts)
[DEBUG] handlePhaseChange -> MAJOR reset (weights & contexts)
[DEBUG] handlePhaseChange -> MAJOR reset (weights & contexts)
[DEBUG] handlePhaseChange -> MAJOR reset (weights & contexts)
[DEBUG] handlePhaseChange -> MAJOR reset (weights & contexts)
[DEBUG] handlePhaseChange -> MAJOR reset (weights & contexts)
[DEBUG] handlePhaseChange -> MAJOR reset (weights & contexts)
[DEBUG] handlePhaseChange -> MAJOR reset (weights & contexts)
[DEBUG] handlePhaseChange -> MAJOR reset (weights & contexts)
[DEBUG] handlePhaseChange -> MAJOR reset (weights & contexts)
[DEBUG] handlePhaseChange -> MAJOR reset (weights & contexts)
[DEBUG] handlePhaseChange -> MAJOR reset (weights & contexts)
[DEBUG] handlePhaseChange -> MAJOR reset (weights & contexts)
[DEBUG] handlePhaseChange -> MAJOR reset (weights & contexts)
[DEBUG] handlePhaseChange -> MAJOR reset (weights & contexts)
[DEBUG] handlePhaseChange -> MAJOR reset (weights & contexts)
[DEBUG] handlePhaseChange -> MAJOR reset (weights & contexts)
[DEBUG] handlePhaseChange -> MAJOR reset (weights & contexts)
[DEBUG] handlePhaseChange -> MAJOR reset (weights & contexts)
[DEBUG] handlePhaseChange -> MAJOR reset (weights & contexts)
[DEBUG] handlePhaseChange -> MAJOR reset (weights & contexts)
[DEBUG] handlePhaseChange -> MAJOR reset (weights & contexts)
[DEBUG] handlePhaseChange -> MAJOR reset (weights & contexts)
[DEBUG] handlePhaseChange -> MAJOR reset (weights & contexts)
[DEBUG] handlePhaseChange -> MAJOR reset (weights & contexts)
[DEBUG] handlePhaseChange -> MAJOR reset (weights & contexts)
[DEBUG] handlePhaseChange -> MAJOR reset (weights & contexts)
[DEBUG] handlePhaseChange -> MAJOR reset (weights & contexts)
[DEBUG] handlePhaseChange -> MAJOR reset (weights & contexts)
[DEBUG] handlePhaseChange -> MAJOR reset (weights & contexts)
[DEBUG] handlePhaseChange -> MAJOR reset (weights & contexts)
[DEBUG] handlePhaseChange -> MAJOR reset (weights & contexts)
[DEBUG] handlePhaseChange -> MAJOR reset (weights & contexts)
[DEBUG] handlePhaseChange -> MAJOR reset (weights & contexts)
[DEBUG] handlePhaseChange -> MAJOR reset (weights & contexts)
[DEBUG] handlePhaseChange -> MAJOR reset (weights & contexts)
[DEBUG] handlePhaseChange -> MAJOR reset (weights & contexts)
[DEBUG] handlePhaseChange -> MAJOR reset (weights & contexts)
[DEBUG] handlePhaseChange -> MAJOR reset (weights & contexts)
[DEBUG] handlePhaseChange -> MAJOR reset (weights & contexts)
[DEBUG] handlePhaseChange -> MAJOR reset (weights & contexts)
[DEBUG] handlePhaseChange -> MAJOR reset (weights & contexts)
[DEBUG] handlePhaseChange -> MAJOR reset (weights & contexts)
[DEBUG] handlePhaseChange -> MAJOR reset (weights & contexts)
[DEBUG] handlePhaseChange -> MAJOR reset (weights & contexts)
[DEBUG] handlePhaseChange -> MAJOR reset (weights & contexts)
[DEBUG] handlePhaseChange -> MAJOR reset (weights & contexts)
[DEBUG] handlePhaseChange -> MAJOR reset (weights & contexts)
[DEBUG] handlePhaseChange -> MAJOR reset (weights & contexts)
[DEBUG] handlePhaseChange -> MAJOR reset (weights & contexts)
[DEBUG] handlePhaseChange -> MAJOR reset (weights & contexts)
[DEBUG] handlePhaseChange -> MAJOR reset (weights & contexts)
[DEBUG] handlePhaseChange -> MAJOR reset (weights & contexts)
[DEBUG] handlePhaseChange -> MAJOR reset (weights & contexts)
[DEBUG] handlePhaseChange -> MAJOR reset (weights & contexts)
[DEBUG] handlePhaseChange -> MAJOR reset (weights & contexts)
[DEBUG] handlePhaseChange -> MAJOR reset (weights & contexts)
[DEBUG] handlePhaseChange -> MAJOR reset (weights & contexts)
[DEBUG] handlePhaseChange -> MAJOR reset (weights & contexts)
[DEBUG] handlePhaseChange -> MAJOR reset (weights & contexts)
[DEBUG] handlePhaseChange -> MAJOR reset (weights & contexts)
[DEBUG] handlePhaseChange -> MAJOR reset (weights & contexts)
[DEBUG] handlePhaseChange -> MAJOR reset (weights & contexts)
[DEBUG] handlePhaseChange -> MAJOR reset (weights & contexts)
[DEBUG] handlePhaseChange -> MAJOR reset (weights & contexts)
[DEBUG] handlePhaseChange -> MAJOR reset (weights & contexts)
[DEBUG] handlePhaseChange -> MAJOR reset (weights & contexts)
[DEBUG] handlePhaseChange -> MAJOR reset (weights & contexts)
[DEBUG] handlePhaseChange -> MAJOR reset (weights & contexts)
[DEBUG] handlePhaseChange -> MAJOR reset (weights & contexts)
[DEBUG] handlePhaseChange -> MAJOR reset (weights & contexts)
[DEBUG] handlePhaseChange -> MAJOR reset (weights & contexts)
[DEBUG] handlePhaseChange -> MAJOR reset (weights & contexts)
[DEBUG] handlePhaseChange -> MAJOR reset (weights & contexts)
[DEBUG] handlePhaseChange -> MAJOR reset (weights & contexts)
[DEBUG] handlePhaseChange -> MAJOR reset (weights & contexts)
[DEBUG] handlePhaseChange -> MAJOR reset (weights & contexts)
[DEBUG] handlePhaseChange -> MAJOR reset (weights & contexts)
[DEBUG] handlePhaseChange -> MAJOR reset (weights & contexts)
[DEBUG] handlePhaseChange -> MAJOR reset (weights & contexts)
[DEBUG] handlePhaseChange -> MAJOR reset (weights & contexts)
[DEBUG] handlePhaseChange -> MAJOR reset (weights & contexts)
[DEBUG] handlePhaseChange -> MAJOR reset (weights & contexts)
[DEBUG] handlePhaseChange -> MAJOR reset (weights & contexts)
[DEBUG] handlePhaseChange -> MAJOR reset (weights & contexts)
[DEBUG] handlePhaseChange -> MAJOR reset (weights & contexts)
[DEBUG] handlePhaseChange -> MAJOR reset (weights & contexts)
[DEBUG] handlePhaseChange -> MAJOR reset (weights & contexts)
[DEBUG] handlePhaseChange -> MAJOR reset (weights & contexts)
[DEBUG] handlePhaseChange -> MAJOR reset (weights & contexts)
[DEBUG] handlePhaseChange -> MAJOR reset (weights & contexts)
[DEBUG] handlePhaseChange -> MAJOR reset (weights & contexts)
[DEBUG] handlePhaseChange -> MAJOR reset (weights & contexts)
[DEBUG] handlePhaseChange -> MAJOR reset (weights & contexts)
[DEBUG] handlePhaseChange -> MAJOR reset (weights & contexts)
[DEBUG] handlePhaseChange -> MAJOR reset (weights & contexts)
[DEBUG] handlePhaseChange -> MAJOR reset (weights & contexts)
[DEBUG] handlePhaseChange -> MAJOR reset (weights & contexts)
[DEBUG] handlePhaseChange -> MAJOR reset (weights & contexts)
[DEBUG] handlePhaseChange -> MAJOR reset (weights & contexts)
[DEBUG] handlePhaseChange -> MAJOR reset (weights & contexts)
[DEBUG] handlePhaseChange -> MAJOR reset (weights & contexts)
[DEBUG] handlePhaseChange -> MAJOR reset (weights & contexts)
[DEBUG] handlePhaseChange -> MAJOR reset (weights & contexts)
[DEBUG] handlePhaseChange -> MAJOR reset (weights & contexts)
[DEBUG] handlePhaseChange -> MAJOR reset (weights & contexts)
[DEBUG] handlePhaseChange -> MAJOR reset (weights & contexts)
[DEBUG] handlePhaseChange -> MAJOR reset (weights & contexts)
[DEBUG] handlePhaseChange -> MAJOR reset (weights & contexts)
[DEBUG] handlePhaseChange -> MAJOR reset (weights & contexts)
[DEBUG] handlePhaseChange -> MAJOR reset (weights & contexts)
[DEBUG] handlePhaseChange -> MAJOR reset (weights & contexts)
[DEBUG] handlePhaseChange -> MAJOR reset (weights & contexts)
[DEBUG] handlePhaseChange -> MAJOR reset (weights & contexts)
[DEBUG] handlePhaseChange -> MAJOR reset (weights & contexts)
[DEBUG] handlePhaseChange -> MAJOR reset (weights & contexts)
[DEBUG] handlePhaseChange -> MAJOR reset (weights & contexts)
[DEBUG] handlePhaseChange -> MAJOR reset (weights & contexts)
[DEBUG] handlePhaseChange -> MAJOR reset (weights & contexts)
[DEBUG] handlePhaseChange -> MAJOR reset (weights & contexts)
[DEBUG] handlePhaseChange -> MAJOR reset (weights & contexts)
[DEBUG] handlePhaseChange -> MAJOR reset (weights & contexts)
[DEBUG] handlePhaseChange -> MAJOR reset (weights & contexts)
[DEBUG] handlePhaseChange -> MAJOR reset (weights & contexts)
[DEBUG] handlePhaseChange -> MAJOR reset (weights & contexts)
[DEBUG] handlePhaseChange -> MAJOR reset (weights & contexts)
[DEBUG] handlePhaseChange -> MAJOR reset (weights & contexts)
[DEBUG] handlePhaseChange -> MAJOR reset (weights & contexts)
[DEBUG] handlePhaseChange -> MAJOR reset (weights & contexts)
[DEBUG] handlePhaseChange -> MAJOR reset (weights & contexts)
[DEBUG] handlePhaseChange -> MAJOR reset (weights & contexts)
[DEBUG] handlePhaseChange -> MAJOR reset (weights & contexts)
[DEBUG] handlePhaseChange -> MAJOR reset (weights & contexts)
[DEBUG] handlePhaseChange -> MAJOR reset (weights & contexts)
[DEBUG] handlePhaseChange -> MAJOR reset (weights & contexts)
[DEBUG] handlePhaseChange -> MAJOR reset (weights & contexts)
[DEBUG] handlePhaseChange -> MAJOR reset (weights & contexts)
[DEBUG] handlePhaseChange -> MAJOR reset (weights & contexts)
[DEBUG] handlePhaseChange -> MAJOR reset (weights & contexts)
[DEBUG] handlePhaseChange -> MAJOR reset (weights & contexts)
[DEBUG] handlePhaseChange -> MAJOR reset (weights & contexts)
[DEBUG] handlePhaseChange -> MAJOR reset (weights & contexts)
[DEBUG] handlePhaseChange -> MAJOR reset (weights & contexts)
[DEBUG] handlePhaseChange -> MAJOR reset (weights & contexts)
[DEBUG] handlePhaseChange -> MAJOR reset (weights & contexts)
[DEBUG] handlePhaseChange -> MAJOR reset (weights & contexts)
[DEBUG] handlePhaseChange -> MAJOR reset (weights & contexts)
[DEBUG] handlePhaseChange -> MAJOR reset (weights & contexts)
[DEBUG] handlePhaseChange -> MAJOR reset (weights & contexts)
[DEBUG] handlePhaseChange -> MAJOR reset (weights & contexts)
[DEBUG] handlePhaseChange -> MAJOR reset (weights & contexts)
[DEBUG] handlePhaseChange -> MAJOR reset (weights & contexts)
[DEBUG] handlePhaseChange -> MAJOR reset (weights & contexts)
[DEBUG] handlePhaseChange -> MAJOR reset (weights & contexts)
[DEBUG] handlePhaseChange -> MAJOR reset (weights & contexts)
[DEBUG] handlePhaseChange -> MAJOR reset (weights & contexts)
[DEBUG] handlePhaseChange -> MAJOR reset (weights & contexts)
[DEBUG] handlePhaseChange -> MAJOR reset (weights & contexts)
[DEBUG] handlePhaseChange -> MAJOR reset (weights & contexts)
[DEBUG] handlePhaseChange -> MAJOR reset (weights & contexts)
[DEBUG] handlePhaseChange -> MAJOR reset (weights & contexts)
[DEBUG] handlePhaseChange -> MAJOR reset (weights & contexts)
[DEBUG] handlePhaseChange -> MAJOR reset (weights & contexts)
[DEBUG] handlePhaseChange -> MAJOR reset (weights & contexts)
[DEBUG] handlePhaseChange -> MAJOR reset (weights & contexts)
[DEBUG] handlePhaseChange -> MAJOR reset (weights & contexts)
[DEBUG] handlePhaseChange -> MAJOR reset (weights & contexts)
[DEBUG] handlePhaseChange -> MAJOR reset (weights & contexts)
[DEBUG] handlePhaseChange -> MAJOR reset (weights & contexts)
[DEBUG] handlePhaseChange -> MAJOR reset (weights & contexts)
[DEBUG] handlePhaseChange -> MAJOR reset (weights & contexts)
[DEBUG] handlePhaseChange -> MAJOR reset (weights & contexts)
[DEBUG] handlePhaseChange -> MAJOR reset (weights & contexts)
[DEBUG] handlePhaseChange -> MAJOR reset (weights & contexts)
[DEBUG] handlePhaseChange -> MAJOR reset (weights & contexts)
[DEBUG] handlePhaseChange -> MAJOR reset (weights & contexts)
[DEBUG] handlePhaseChange -> MAJOR reset (weights & contexts)
[DEBUG] handlePhaseChange -> MAJOR reset (weights & contexts)
[DEBUG] handlePhaseChange -> MAJOR reset (weights & contexts)
[DEBUG] handlePhaseChange -> MAJOR reset (weights & contexts)
[DEBUG] handlePhaseChange -> MAJOR reset (weights & contexts)
[DEBUG] handlePhaseChange -> MAJOR reset (weights & contexts)
[DEBUG] handlePhaseChange -> MAJOR reset (weights & contexts)
[DEBUG] handlePhaseChange -> MAJOR reset (weights & contexts)
[DEBUG] handlePhaseChange -> MAJOR reset (weights & contexts)
[DEBUG] handlePhaseChange -> MAJOR reset (weights & contexts)
[DEBUG] handlePhaseChange -> MAJOR reset (weights & contexts)
[DEBUG] handlePhaseChange -> MAJOR reset (weights & contexts)
[DEBUG] handlePhaseChange -> MAJOR reset (weights & contexts)
[DEBUG] handlePhaseChange -> MAJOR reset (weights & contexts)
[DEBUG] handlePhaseChange -> MAJOR reset (weights & contexts)
[DEBUG] handlePhaseChange -> MAJOR reset (weights & contexts)
[DEBUG] handlePhaseChange -> MAJOR reset (weights & contexts)
[DEBUG] handlePhaseChange -> MAJOR reset (weights & contexts)
[DEBUG] handlePhaseChange -> MAJOR reset (weights & contexts)
[DEBUG] handlePhaseChange -> MAJOR reset (weights & contexts)
[DEBUG] handlePhaseChange -> MAJOR reset (weights & contexts)
[DEBUG] handlePhaseChange -> MAJOR reset (weights & contexts)
[DEBUG] handlePhaseChange -> MAJOR reset (weights & contexts)
[DEBUG] handlePhaseChange -> MAJOR reset (weights & contexts)
[DEBUG] handlePhaseChange -> MAJOR reset (weights & contexts)
[DEBUG] handlePhaseChange -> MAJOR reset (weights & contexts)
[DEBUG] handlePhaseChange -> MAJOR reset (weights & contexts)
[DEBUG] handlePhaseChange -> MAJOR reset (weights & contexts)
[DEBUG] handlePhaseChange -> MAJOR reset (weights & contexts)
[DEBUG] handlePhaseChange -> MAJOR reset (weights & contexts)
[DEBUG] handlePhaseChange -> MAJOR reset (weights & contexts)
[DEBUG] handlePhaseChange -> MAJOR reset (weights & contexts)
[DEBUG] handlePhaseChange -> MAJOR reset (weights & contexts)
[DEBUG] handlePhaseChange -> MAJOR reset (weights & contexts)
[DEBUG] handlePhaseChange -> MAJOR reset (weights & contexts)
[DEBUG] handlePhaseChange -> MAJOR reset (weights & contexts)
[DEBUG] handlePhaseChange -> MAJOR reset (weights & contexts)
[DEBUG] handlePhaseChange -> MAJOR reset (weights & contexts)
[DEBUG] handlePhaseChange -> MAJOR reset (weights & contexts)
[DEBUG] handlePhaseChange -> MAJOR reset (weights & contexts)
[DEBUG] handlePhaseChange -> MAJOR reset (weights & contexts)
[DEBUG] handlePhaseChange -> MAJOR reset (weights & contexts)
[DEBUG] handlePhaseChange -> MAJOR reset (weights & contexts)
[DEBUG] handlePhaseChange -> MAJOR reset (weights & contexts)
[DEBUG] handlePhaseChange -> MAJOR reset (weights & contexts)
[DEBUG] handlePhaseChange -> MAJOR reset (weights & contexts)
[DEBUG] handlePhaseChange -> MAJOR reset (weights & contexts)
[DEBUG] handlePhaseChange -> MAJOR reset (weights & contexts)
[DEBUG] handlePhaseChange -> MAJOR reset (weights & contexts)
[DEBUG] handlePhaseChange -> MAJOR reset (weights & contexts)
[DEBUG] handlePhaseChange -> MAJOR reset (weights & contexts)
[DEBUG] handlePhaseChange -> MAJOR reset (weights & contexts)
[DEBUG] handlePhaseChange -> MAJOR reset (weights & contexts)
[DEBUG] handlePhaseChange -> MAJOR reset (weights & contexts)
[DEBUG] handlePhaseChange -> MAJOR reset (weights & contexts)
[DEBUG] handlePhaseChange -> MAJOR reset (weights & contexts)
[DEBUG] handlePhaseChange -> MAJOR reset (weights & contexts)
[DEBUG] handlePhaseChange -> MAJOR reset (weights & contexts)
[DEBUG] handlePhaseChange -> MAJOR reset (weights & contexts)
[DEBUG] handlePhaseChange -> MAJOR reset (weights & contexts)
[DEBUG] handlePhaseChange -> MAJOR reset (weights & contexts)
[DEBUG] handlePhaseChange -> MAJOR reset (weights & contexts)
[DEBUG] handlePhaseChange -> MAJOR reset (weights & contexts)
[DEBUG] handlePhaseChange -> MAJOR reset (weights & contexts)
[DEBUG] handlePhaseChange -> MAJOR reset (weights & contexts)
[DEBUG] handlePhaseChange -> MAJOR reset (weights & contexts)
[DEBUG] handlePhaseChange -> MAJOR reset (weights & contexts)
[DEBUG] handlePhaseChange -> MAJOR reset (weights & contexts)
[DEBUG] handlePhaseChange -> MAJOR reset (weights & contexts)
[DEBUG] handlePhaseChange -> MAJOR reset (weights & contexts)
[DEBUG] handlePhaseChange -> MAJOR reset (weights & contexts)
[DEBUG] handlePhaseChange -> MAJOR reset (weights & contexts)
[DEBUG] handlePhaseChange -> MAJOR reset (weights & contexts)
[DEBUG] handlePhaseChange -> MAJOR reset (weights & contexts)
[DEBUG] handlePhaseChange -> MAJOR reset (weights & contexts)
[DEBUG] handlePhaseChange -> MAJOR reset (weights & contexts)
[DEBUG] handlePhaseChange -> MAJOR reset (weights & contexts)
[DEBUG] handlePhaseChange -> MAJOR reset (weights & contexts)
[DEBUG] handlePhaseChange -> MAJOR reset (weights & contexts)
[DEBUG] handlePhaseChange -> MAJOR reset (weights & contexts)
[DEBUG] handlePhaseChange -> MAJOR reset (weights & contexts)
[DEBUG] handlePhaseChange -> MAJOR reset (weights & contexts)
[DEBUG] handlePhaseChange -> MAJOR reset (weights & contexts)
[DEBUG] handlePhaseChange -> MAJOR reset (weights & contexts)
[DEBUG] handlePhaseChange -> MAJOR reset (weights & contexts)
[DEBUG] handlePhaseChange -> MAJOR reset (weights & contexts)
[DEBUG] handlePhaseChange -> MAJOR reset (weights & contexts)
[DEBUG] handlePhaseChange -> MAJOR reset (weights & contexts)
[DEBUG] handlePhaseChange -> MAJOR reset (weights & contexts)
[DEBUG] handlePhaseChange -> MAJOR reset (weights & contexts)
[DEBUG] handlePhaseChange -> MAJOR reset (weights & contexts)
[DEBUG] handlePhaseChange -> MAJOR reset (weights & contexts)
[DEBUG] handlePhaseChange -> MAJOR reset (weights & contexts)
[DEBUG] handlePhaseChange -> MAJOR reset (weights & contexts)
[DEBUG] handlePhaseChange -> MAJOR reset (weights & contexts)
[DEBUG] handlePhaseChange -> MAJOR reset (weights & contexts)
[DEBUG] handlePhaseChange -> MAJOR reset (weights & contexts)
[DEBUG] handlePhaseChange -> MAJOR reset (weights & contexts)
[DEBUG] handlePhaseChange -> MAJOR reset (weights & contexts)
[DEBUG] handlePhaseChange -> MAJOR reset (weights & contexts)
[DEBUG] handlePhaseChange -> MAJOR reset (weights & contexts)
[DEBUG] handlePhaseChange -> MAJOR reset (weights & contexts)
[DEBUG] handlePhaseChange -> MAJOR reset (weights & contexts)
[DEBUG] handlePhaseChange -> MAJOR reset (weights & contexts)
[DEBUG] handlePhaseChange -> MAJOR reset (weights & contexts)
[DEBUG] handlePhaseChange -> MAJOR reset (weights & contexts)
[DEBUG] handlePhaseChange -> MAJOR reset (weights & contexts)
[DEBUG] handlePhaseChange -> MAJOR reset (weights & contexts)
[DEBUG] handlePhaseChange -> MAJOR reset (weights & contexts)
[DEBUG] handlePhaseChange -> MAJOR reset (weights & contexts)
[DEBUG] handlePhaseChange -> MAJOR reset (weights & contexts)
[DEBUG] handlePhaseChange -> MAJOR reset (weights & contexts)
[DEBUG] handlePhaseChange -> MAJOR reset (weights & contexts)
[DEBUG] handlePhaseChange -> MAJOR reset (weights & contexts)
[DEBUG] handlePhaseChange -> MAJOR reset (weights & contexts)
[DEBUG] handlePhaseChange -> MAJOR reset (weights & contexts)
[DEBUG] handlePhaseChange -> MAJOR reset (weights & contexts)
[DEBUG] handlePhaseChange -> MAJOR reset (weights & contexts)
[DEBUG] handlePhaseChange -> MAJOR reset (weights & contexts)
[DEBUG] handlePhaseChange -> MAJOR reset (weights & contexts)
[DEBUG] handlePhaseChange -> MAJOR reset (weights & contexts)
[DEBUG] handlePhaseChange -> MAJOR reset (weights & contexts)
[DEBUG] handlePhaseChange -> MAJOR reset (weights & contexts)
[DEBUG] handlePhaseChange -> MAJOR reset (weights & contexts)
[DEBUG] handlePhaseChange -> MAJOR reset (weights & contexts)
[DEBUG] handlePhaseChange -> MAJOR reset (weights & contexts)
[DEBUG] handlePhaseChange -> MAJOR reset (weights & contexts)
[DEBUG] handlePhaseChange -> MAJOR reset (weights & contexts)
[DEBUG] handlePhaseChange -> MAJOR reset (weights & contexts)
[DEBUG] handlePhaseChange -> MAJOR reset (weights & contexts)
[DEBUG] handlePhaseChange -> MAJOR reset (weights & contexts)
[DEBUG] handlePhaseChange -> MAJOR reset (weights & contexts)
[DEBUG] handlePhaseChange -> MAJOR reset (weights & contexts)
[DEBUG] handlePhaseChange -> MAJOR reset (weights & contexts)
[DEBUG] handlePhaseChange -> MAJOR reset (weights & contexts)
[DEBUG] handlePhaseChange -> MAJOR reset (weights & contexts)
[DEBUG] handlePhaseChange -> MAJOR reset (weights & contexts)
[DEBUG] handlePhaseChange -> MAJOR reset (weights & contexts)
[DEBUG] handlePhaseChange -> MAJOR reset (weights & contexts)
[DEBUG] handlePhaseChange -> MAJOR reset (weights & contexts)
[DEBUG] handlePhaseChange -> MAJOR reset (weights & contexts)
[DEBUG] handlePhaseChange -> MAJOR reset (weights & contexts)
[DEBUG] handlePhaseChange -> MAJOR reset (weights & contexts)
[DEBUG] handlePhaseChange -> MAJOR reset (weights & contexts)
[DEBUG] handlePhaseChange -> MAJOR reset (weights & contexts)
[DEBUG] handlePhaseChange -> MAJOR reset (weights & contexts)
[DEBUG] handlePhaseChange -> MAJOR reset (weights & contexts)
[DEBUG] handlePhaseChange -> MAJOR reset (weights & contexts)
[DEBUG] handlePhaseChange -> MAJOR reset (weights & contexts)
[DEBUG] handlePhaseChange -> MAJOR reset (weights & contexts)
[DEBUG] handlePhaseChange -> MAJOR reset (weights & contexts)
[DEBUG] handlePhaseChange -> MAJOR reset (weights & contexts)
[DEBUG] handlePhaseChange -> MAJOR reset (weights & contexts)
[DEBUG] handlePhaseChange -> MAJOR reset (weights & contexts)
[DEBUG] handlePhaseChange -> MAJOR reset (weights & contexts)
[DEBUG] handlePhaseChange -> MAJOR reset (weights & contexts)
[DEBUG] handlePhaseChange -> MAJOR reset (weights & contexts)
[DEBUG] handlePhaseChange -> MAJOR reset (weights & contexts)
[DEBUG] handlePhaseChange -> MAJOR reset (weights & contexts)
[DEBUG] handlePhaseChange -> MAJOR reset (weights & contexts)
[DEBUG] handlePhaseChange -> MAJOR reset (weights & contexts)
[DEBUG] handlePhaseChange -> MAJOR reset (weights & contexts)
[DEBUG] handlePhaseChange -> MAJOR reset (weights & contexts)
[DEBUG] handlePhaseChange -> MAJOR reset (weights & contexts)
[DEBUG] handlePhaseChange -> MAJOR reset (weights & contexts)
[DEBUG] handlePhaseChange -> MAJOR reset (weights & contexts)
[DEBUG] handlePhaseChange -> MAJOR reset (weights & contexts)
[DEBUG] handlePhaseChange -> MAJOR reset (weights & contexts)
[DEBUG] handlePhaseChange -> MAJOR reset (weights & contexts)
[DEBUG] handlePhaseChange -> MAJOR reset (weights & contexts)
[DEBUG] handlePhaseChange -> MAJOR reset (weights & contexts)
[DEBUG] handlePhaseChange -> MAJOR reset (weights & contexts)
[DEBUG] handlePhaseChange -> MAJOR reset (weights & contexts)
[DEBUG] handlePhaseChange -> MAJOR reset (weights & contexts)
[DEBUG] handlePhaseChange -> MAJOR reset (weights & contexts)
[DEBUG] handlePhaseChange -> MAJOR reset (weights & contexts)
[DEBUG] handlePhaseChange -> MAJOR reset (weights & contexts)
[DEBUG] handlePhaseChange -> MAJOR reset (weights & contexts)
[DEBUG] handlePhaseChange -> MAJOR reset (weights & contexts)
[DEBUG] handlePhaseChange -> MAJOR reset (weights & contexts)
[DEBUG] handlePhaseChange -> MAJOR reset (weights & contexts)
[DEBUG] handlePhaseChange -> MAJOR reset (weights & contexts)
[DEBUG] handlePhaseChange -> MAJOR reset (weights & contexts)
[DEBUG] handlePhaseChange -> MAJOR reset (weights & contexts)
[DEBUG] handlePhaseChange -> MAJOR reset (weights & contexts)
[DEBUG] handlePhaseChange -> MAJOR reset (weights & contexts)
[DEBUG] handlePhaseChange -> MAJOR reset (weights & contexts)
[DEBUG] handlePhaseChange -> MAJOR reset (weights & contexts)
[DEBUG] handlePhaseChange -> MAJOR reset (weights & contexts)
[DEBUG] handlePhaseChange -> MAJOR reset (weights & contexts)
[DEBUG] handlePhaseChange -> MAJOR reset (weights & contexts)
[DEBUG] handlePhaseChange -> MAJOR reset (weights & contexts)
[DEBUG] handlePhaseChange -> MAJOR reset (weights & contexts)
[DEBUG] handlePhaseChange -> MAJOR reset (weights & contexts)
[DEBUG] handlePhaseChange -> MAJOR reset (weights & contexts)
[DEBUG] handlePhaseChange -> MAJOR reset (weights & contexts)
[DEBUG] handlePhaseChange -> MAJOR reset (weights & contexts)
[DEBUG] handlePhaseChange -> MAJOR reset (weights & contexts)
[DEBUG] handlePhaseChange -> MAJOR reset (weights & contexts)
[DEBUG] handlePhaseChange -> MAJOR reset (weights & contexts)
[DEBUG] handlePhaseChange -> MAJOR reset (weights & contexts)
[DEBUG] handlePhaseChange -> MAJOR reset (weights & contexts)
[DEBUG] handlePhaseChange -> MAJOR reset (weights & contexts)
[DEBUG] handlePhaseChange -> MAJOR reset (weights & contexts)
[DEBUG] handlePhaseChange -> MAJOR reset (weights & contexts)
[DEBUG] handlePhaseChange -> MAJOR reset (weights & contexts)
[DEBUG] handlePhaseChange -> MAJOR reset (weights & contexts)
[DEBUG] handlePhaseChange -> MAJOR reset (weights & contexts)
[DEBUG] handlePhaseChange -> MAJOR reset (weights & contexts)
[DEBUG] handlePhaseChange -> MAJOR reset (weights & contexts)
[DEBUG] handlePhaseChange -> MAJOR reset (weights & contexts)
[DEBUG] handlePhaseChange -> MAJOR reset (weights & contexts)
[DEBUG] handlePhaseChange -> MAJOR reset (weights & contexts)
[DEBUG] handlePhaseChange -> MAJOR reset (weights & contexts)
[DEBUG] handlePhaseChange -> MAJOR reset (weights & contexts)
[DEBUG] handlePhaseChange -> MAJOR reset (weights & contexts)
[DEBUG] handlePhaseChange -> MAJOR reset (weights & contexts)
[DEBUG] handlePhaseChange -> MAJOR reset (weights & contexts)
[DEBUG] handlePhaseChange -> MAJOR reset (weights & contexts)
[DEBUG] handlePhaseChange -> MAJOR reset (weights & contexts)
[DEBUG] handlePhaseChange -> MAJOR reset (weights & contexts)
[DEBUG] handlePhaseChange -> MAJOR reset (weights & contexts)
[DEBUG] handlePhaseChange -> MAJOR reset (weights & contexts)
[DEBUG] handlePhaseChange -> MAJOR reset (weights & contexts)
[DEBUG] handlePhaseChange -> MAJOR reset (weights & contexts)
[DEBUG] handlePhaseChange -> MAJOR reset (weights & contexts)
[DEBUG] handlePhaseChange -> MAJOR reset (weights & contexts)
[DEBUG] handlePhaseChange -> MAJOR reset (weights & contexts)
[DEBUG] handlePhaseChange -> MAJOR reset (weights & contexts)
[DEBUG] handlePhaseChange -> MAJOR reset (weights & contexts)
[DEBUG] handlePhaseChange -> MAJOR reset (weights & contexts)
[DEBUG] handlePhaseChange -> MAJOR reset (weights & contexts)
[DEBUG] handlePhaseChange -> MAJOR reset (weights & contexts)
[DEBUG] handlePhaseChange -> MAJOR reset (weights & contexts)
[DEBUG] handlePhaseChange -> MAJOR reset (weights & contexts)
[DEBUG] handlePhaseChange -> MAJOR reset (weights & contexts)
[DEBUG] handlePhaseChange -> MAJOR reset (weights & contexts)
[DEBUG] handlePhaseChange -> MAJOR reset (weights & contexts)
[DEBUG] handlePhaseChange -> MAJOR reset (weights & contexts)
[DEBUG] handlePhaseChange -> MAJOR reset (weights & contexts)
[DEBUG] handlePhaseChange -> MAJOR reset (weights & contexts)
[DEBUG] handlePhaseChange -> MAJOR reset (weights & contexts)
[DEBUG] handlePhaseChange -> MAJOR reset (weights & contexts)
[DEBUG] handlePhaseChange -> MAJOR reset (weights & contexts)
[DEBUG] handlePhaseChange -> MAJOR reset (weights & contexts)
[DEBUG] handlePhaseChange -> MAJOR reset (weights & contexts)
[DEBUG] handlePhaseChange -> MAJOR reset (weights & contexts)
[DEBUG] handlePhaseChange -> MAJOR reset (weights & contexts)
[DEBUG] handlePhaseChange -> MAJOR reset (weights & contexts)
[DEBUG] handlePhaseChange -> MAJOR reset (weights & contexts)
[DEBUG] handlePhaseChange -> MAJOR reset (weights & contexts)
[DEBUG] handlePhaseChange -> MAJOR reset (weights & contexts)
[DEBUG] handlePhaseChange -> MAJOR reset (weights & contexts)
[DEBUG] handlePhaseChange -> MAJOR reset (weights & contexts)
[DEBUG] handlePhaseChange -> MAJOR reset (weights & contexts)
[DEBUG] handlePhaseChange -> MAJOR reset (weights & contexts)
[DEBUG] handlePhaseChange -> MAJOR reset (weights & contexts)
[DEBUG] handlePhaseChange -> MAJOR reset (weights & contexts)
[DEBUG] handlePhaseChange -> MAJOR reset (weights & contexts)
[DEBUG] handlePhaseChange -> MAJOR reset (weights & contexts)
[DEBUG] handlePhaseChange -> MAJOR reset (weights & contexts)
[DEBUG] handlePhaseChange -> MAJOR reset (weights & contexts)
[DEBUG] handlePhaseChange -> MAJOR reset (weights & contexts)
[DEBUG] handlePhaseChange -> MAJOR reset (weights & contexts)
[DEBUG] handlePhaseChange -> MAJOR reset (weights & contexts)
[DEBUG] handlePhaseChange -> MAJOR reset (weights & contexts)
[DEBUG] handlePhaseChange -> MAJOR reset (weights & contexts)
[DEBUG] handlePhaseChange -> MAJOR reset (weights & contexts)
[DEBUG] handlePhaseChange -> MAJOR reset (weights & contexts)
[DEBUG] handlePhaseChange -> MAJOR reset (weights & contexts)
[DEBUG] handlePhaseChange -> MAJOR reset (weights & contexts)
[DEBUG] handlePhaseChange -> MAJOR reset (weights & contexts)
[DEBUG] handlePhaseChange -> MAJOR reset (weights & contexts)
[DEBUG] handlePhaseChange -> MAJOR reset (weights & contexts)
[DEBUG] handlePhaseChange -> MAJOR reset (weights & contexts)
[DEBUG] handlePhaseChange -> MAJOR reset (weights & contexts)
[DEBUG] handlePhaseChange -> MAJOR reset (weights & contexts)
[DEBUG] handlePhaseChange -> MAJOR reset (weights & contexts)
[DEBUG] handlePhaseChange -> MAJOR reset (weights & contexts)
[DEBUG] handlePhaseChange -> MAJOR reset (weights & contexts)
[DEBUG] handlePhaseChange -> MAJOR reset (weights & contexts)
[DEBUG] handlePhaseChange -> MAJOR reset (weights & contexts)
[DEBUG] handlePhaseChange -> MAJOR reset (weights & contexts)
[DEBUG] handlePhaseChange -> MAJOR reset (weights & contexts)
[DEBUG] handlePhaseChange -> MAJOR reset (weights & contexts)
[DEBUG] handlePhaseChange -> MAJOR reset (weights & contexts)
[DEBUG] handlePhaseChange -> MAJOR reset (weights & contexts)
[DEBUG] handlePhaseChange -> MAJOR reset (weights & contexts)
[DEBUG] handlePhaseChange -> MAJOR reset (weights & contexts)
[DEBUG] handlePhaseChange -> MAJOR reset (weights & contexts)
[DEBUG] handlePhaseChange -> MAJOR reset (weights & contexts)
[DEBUG] handlePhaseChange -> MAJOR reset (weights & contexts)
[DEBUG] handlePhaseChange -> MAJOR reset (weights & contexts)
[DEBUG] handlePhaseChange -> MAJOR reset (weights & contexts)
[DEBUG] handlePhaseChange -> MAJOR reset (weights & contexts)
[DEBUG] handlePhaseChange -> MAJOR reset (weights & contexts)
[DEBUG] handlePhaseChange -> MAJOR reset (weights & contexts)
[DEBUG] handlePhaseChange -> MAJOR reset (weights & contexts)
[DEBUG] handlePhaseChange -> MAJOR reset (weights & contexts)
[DEBUG] handlePhaseChange -> MAJOR reset (weights & contexts)
[DEBUG] handlePhaseChange -> MAJOR reset (weights & contexts)
[DEBUG] handlePhaseChange -> MAJOR reset (weights & contexts)
[DEBUG] handlePhaseChange -> MAJOR reset (weights & contexts)
[DEBUG] handlePhaseChange -> MAJOR reset (weights & contexts)
[DEBUG] handlePhaseChange -> MAJOR reset (weights & contexts)
[DEBUG] handlePhaseChange -> MAJOR reset (weights & contexts)
[DEBUG] handlePhaseChange -> MAJOR reset (weights & contexts)
[DEBUG] handlePhaseChange -> MAJOR reset (weights & contexts)
[DEBUG] handlePhaseChange -> MAJOR reset (weights & contexts)
[DEBUG] handlePhaseChange -> MAJOR reset (weights & contexts)
[DEBUG] handlePhaseChange -> MAJOR reset (weights & contexts)
[DEBUG] handlePhaseChange -> MAJOR reset (weights & contexts)
[DEBUG] handlePhaseChange -> MAJOR reset (weights & contexts)
[DEBUG] handlePhaseChange -> MAJOR reset (weights & contexts)
[DEBUG] handlePhaseChange -> MAJOR reset (weights & contexts)
[DEBUG] handlePhaseChange -> MAJOR reset (weights & contexts)
[DEBUG] handlePhaseChange -> MAJOR reset (weights & contexts)
[DEBUG] handlePhaseChange -> MAJOR reset (weights & contexts)
[DEBUG] handlePhaseChange -> MAJOR reset (weights & contexts)
[DEBUG] handlePhaseChange -> MAJOR reset (weights & contexts)
[DEBUG] handlePhaseChange -> MAJOR reset (weights & contexts)
[DEBUG] handlePhaseChange -> MAJOR reset (weights & contexts)
[DEBUG] handlePhaseChange -> MAJOR reset (weights & contexts)
[DEBUG] handlePhaseChange -> MAJOR reset (weights & contexts)
[DEBUG] handlePhaseChange -> MAJOR reset (weights & contexts)
[DEBUG] handlePhaseChange -> MAJOR reset (weights & contexts)
[DEBUG] handlePhaseChange -> MAJOR reset (weights & contexts)
[DEBUG] handlePhaseChange -> MAJOR reset (weights & contexts)
[DEBUG] handlePhaseChange -> MAJOR reset (weights & contexts)
[DEBUG] handlePhaseChange -> MAJOR reset (weights & contexts)
[DEBUG] handlePhaseChange -> MAJOR reset (weights & contexts)
[DEBUG] handlePhaseChange -> MAJOR reset (weights & contexts)
[DEBUG] handlePhaseChange -> MAJOR reset (weights & contexts)
[DEBUG] handlePhaseChange -> MAJOR reset (weights & contexts)
[DEBUG] handlePhaseChange -> MAJOR reset (weights & contexts)
[DEBUG] handlePhaseChange -> MAJOR reset (weights & contexts)
[DEBUG] handlePhaseChange -> MAJOR reset (weights & contexts)
[DEBUG] handlePhaseChange -> MAJOR reset (weights & contexts)
[DEBUG] handlePhaseChange -> MAJOR reset (weights & contexts)
[DEBUG] handlePhaseChange -> MAJOR reset (weights & contexts)
[DEBUG] handlePhaseChange -> MAJOR reset (weights & contexts)
[DEBUG] handlePhaseChange -> MAJOR reset (weights & contexts)
[DEBUG] handlePhaseChange -> MAJOR reset (weights & contexts)
[DEBUG] handlePhaseChange -> MAJOR reset (weights & contexts)
[DEBUG] handlePhaseChange -> MAJOR reset (weights & contexts)
[DEBUG] handlePhaseChange -> MAJOR reset (weights & contexts)
[DEBUG] handlePhaseChange -> MAJOR reset (weights & contexts)
[DEBUG] handlePhaseChange -> MAJOR reset (weights & contexts)
[DEBUG] handlePhaseChange -> MAJOR reset (weights & contexts)
[DEBUG] handlePhaseChange -> MAJOR reset (weights & contexts)
[DEBUG] handlePhaseChange -> MAJOR reset (weights & contexts)
[DEBUG] handlePhaseChange -> MAJOR reset (weights & contexts)
[DEBUG] handlePhaseChange -> MAJOR reset (weights & contexts)
[DEBUG] handlePhaseChange -> MAJOR reset (weights & contexts)
[DEBUG] handlePhaseChange -> MAJOR reset (weights & contexts)
[DEBUG] handlePhaseChange -> MAJOR reset (weights & contexts)
[DEBUG] handlePhaseChange -> MAJOR reset (weights & contexts)
[DEBUG] handlePhaseChange -> MAJOR reset (weights & contexts)
[DEBUG] handlePhaseChange -> MAJOR reset (weights & contexts)
[DEBUG] handlePhaseChange -> MAJOR reset (weights & contexts)
[DEBUG] handlePhaseChange -> MAJOR reset (weights & contexts)
[DEBUG] handlePhaseChange -> MAJOR reset (weights & contexts)
[DEBUG] handlePhaseChange -> MAJOR reset (weights & contexts)
[DEBUG] handlePhaseChange -> MAJOR reset (weights & contexts)
[DEBUG] handlePhaseChange -> MAJOR reset (weights & contexts)
[DEBUG] handlePhaseChange -> MAJOR reset (weights & contexts)
[DEBUG] handlePhaseChange -> MAJOR reset (weights & contexts)
[DEBUG] handlePhaseChange -> MAJOR reset (weights & contexts)
[DEBUG] handlePhaseChange -> MAJOR reset (weights & contexts)
[DEBUG] handlePhaseChange -> MAJOR reset (weights & contexts)
[DEBUG] handlePhaseChange -> MAJOR reset (weights & contexts)
[DEBUG] handlePhaseChange -> MAJOR reset (weights & contexts)
[DEBUG] handlePhaseChange -> MAJOR reset (weights & contexts)
[DEBUG] handlePhaseChange -> MAJOR reset (weights & contexts)
[DEBUG] handlePhaseChange -> MAJOR reset (weights & contexts)
[DEBUG] handlePhaseChange -> MAJOR reset (weights & contexts)
[DEBUG] handlePhaseChange -> MAJOR reset (weights & contexts)
[DEBUG] handlePhaseChange -> MAJOR reset (weights & contexts)
[DEBUG] handlePhaseChange -> MAJOR reset (weights & contexts)
[DEBUG] handlePhaseChange -> MAJOR reset (weights & contexts)
[DEBUG] handlePhaseChange -> MAJOR reset (weights & contexts)
[DEBUG] handlePhaseChange -> MAJOR reset (weights & contexts)
[DEBUG] handlePhaseChange -> MAJOR reset (weights & contexts)
[DEBUG] handlePhaseChange -> MAJOR reset (weights & contexts)
[DEBUG] handlePhaseChange -> MAJOR reset (weights & contexts)
[DEBUG] handlePhaseChange -> MAJOR reset (weights & contexts)
[DEBUG] handlePhaseChange -> MAJOR reset (weights & contexts)
[DEBUG] handlePhaseChange -> MAJOR reset (weights & contexts)
[DEBUG] handlePhaseChange -> MAJOR reset (weights & contexts)
[DEBUG] handlePhaseChange -> MAJOR reset (weights & contexts)
[DEBUG] handlePhaseChange -> MAJOR reset (weights & contexts)
[DEBUG] handlePhaseChange -> MAJOR reset (weights & contexts)
[DEBUG] handlePhaseChange -> MAJOR reset (weights & contexts)
[DEBUG] handlePhaseChange -> MAJOR reset (weights & contexts)
[DEBUG] handlePhaseChange -> MAJOR reset (weights & contexts)
[DEBUG] handlePhaseChange -> MAJOR reset (weights & contexts)
[DEBUG] handlePhaseChange -> MAJOR reset (weights & contexts)
[DEBUG] handlePhaseChange -> MAJOR reset (weights & contexts)
[DEBUG] handlePhaseChange -> MAJOR reset (weights & contexts)
[DEBUG] handlePhaseChange -> MAJOR reset (weights & contexts)
[DEBUG] handlePhaseChange -> MAJOR reset (weights & contexts)
[DEBUG] handlePhaseChange -> MAJOR reset (weights & contexts)
[DEBUG] handlePhaseChange -> MAJOR reset (weights & contexts)
[DEBUG] handlePhaseChange -> MAJOR reset (weights & contexts)
[DEBUG] handlePhaseChange -> MAJOR reset (weights & contexts)
[DEBUG] handlePhaseChange -> MAJOR reset (weights & contexts)
[DEBUG] handlePhaseChange -> MAJOR reset (weights & contexts)
[DEBUG] handlePhaseChange -> MAJOR reset (weights & contexts)
[DEBUG] handlePhaseChange -> MAJOR reset (weights & contexts)
[DEBUG] handlePhaseChange -> MAJOR reset (weights & contexts)
[DEBUG] handlePhaseChange -> MAJOR reset (weights & contexts)
[DEBUG] handlePhaseChange -> MAJOR reset (weights & contexts)
[DEBUG] handlePhaseChange -> MAJOR reset (weights & contexts)
[DEBUG] handlePhaseChange -> MAJOR reset (weights & contexts)
[...]
scooby_state_401ce6|3|-2 3,0,0,0,0,0,0,0,0,0,0,0,0,0,0,3,
scooby_state_401d14|2|2 0,3,0,0,0,0,0,0,0,0,0,0,0,0,0,3,
scooby_state_401d4f|51|1 0,3,0,0,0,0,0,0,0,0,0,0,0,0,0,3,
scooby_state_401d4f|40|1 1,2,0,0,0,0,0,0,0,0,0,0,0,0,0,3,
scooby_state_401d4f|12|1 0,3,0,0,0,0,0,0,0,0,0,0,0,0,0,3,
scooby_state_401d2b|47|-1 3,0,0,0,0,0,0,0,0,0,0,0,0,0,0,3,
scooby_state_401d4f|39|1 0,3,0,0,0,0,0,0,0,0,0,0,0,0,0,3,
scooby_state_401e19|31|-2 0,3,0,0,0,0,0,0,0,0,0,0,0,0,0,3,
scooby_state_401d2b|7|-1 3,0,0,0,0,0,0,0,0,0,0,0,0,0,0,3,
scooby_state_401e5a|54|-1 1,0,0,0,0,2,0,0,0,0,0,0,0,0,0,3,
scooby_state_401d4f|19|1 0,3,0,0,0,0,0,0,0,0,0,0,0,0,0,3,
scooby_state_401d4f|2|1 0,3,0,0,0,0,0,0,0,0,0,0,0,0,0,3,
scooby_state_401e0f|31|-2 3,0,0,0,0,0,0,0,0,0,0,0,0,0,0,3,
scooby_state_401dac|1|1 0,3,0,0,0,0,0,0,0,0,0,0,0,0,0,3,
scooby_state_401d2b|46|-1 3,0,0,0,0,0,0,0,0,0,0,0,0,0,0,3,
scooby_state_401ce6|20|-2 3,0,0,0,0,0,0,0,0,0,0,0,0,0,0,3,
scooby_state_401e5a|56|-1 0,0,0,0,0,3,0,0,0,0,0,0,0,0,0,3,
scooby_state_401d2b|18|-1 3,0,0,0,0,0,0,0,0,0,0,0,0,0,0,3,
scooby_state_401e0f|5|-2 3,0,0,0,0,0,0,0,0,0,0,0,0,0,0,3,
scooby_state_401e0f|30|-2 3,0,0,0,0,0,0,0,0,0,0,0,0,0,0,3,
scooby_state_401e0f|18|-2 3,0,0,0,0,0,0,0,0,0,0,0,0,0,0,3,
scooby_state_401d4f|7|1 0,3,0,0,0,0,0,0,0,0,0,0,0,0,0,3,
scooby_state_401d2b|30|-1 3,0,0,0,0,0,0,0,0,0,0,0,0,0,0,3,
scooby_state_401e67|2|-1 0,3,0,0,0,0,0,0,0,0,0,0,0,0,0,3,
scooby_state_401d2b|44|-1 3,0,0,0,0,0,0,0,0,0,0,0,0,0,0,3,
scooby_state_401d4f|26|1 0,3,0,0,0,0,0,0,0,0,0,0,0,0,0,3,
scooby_state_401e0f|1|-2 3,0,0,0,0,0,0,0,0,0,0,0,0,0,0,3,
scooby_state_401e0f|10|-2 3,0,0,0,0,0,0,0,0,0,0,0,0,0,0,3,
scooby_state_401e19|52|-2 0,3,0,0,0,0,0,0,0,0,0,0,0,0,0,3,
scooby_state_401d60|1|-1 0,0,0,0,0,3,0,0,0,0,0,0,0,0,0,3,
scooby_state_401d14|3|2 0,3,0,0,0,0,0,0,0,0,0,0,0,0,0,3,
scooby_state_401e0f|36|-2 3,0,0,0,0,0,0,0,0,0,0,0,0,0,0,3,
scooby_state_401d4f|22|1 0,3,0,0,0,0,0,0,0,0,0,0,0,0,0,3,
scooby_state_401e0f|25|-2 3,0,0,0,0,0,0,0,0,0,0,0,0,0,0,3,
scooby_state_401d2b|38|-1 3,0,0,0,0,0,0,0,0,0,0,0,0,0,0,3,
scooby_state_401d4f|5|1 0,3,0,0,0,0,0,0,0,0,0,0,0,0,0,3,
scooby_state_401e67|56|-1 0,3,0,0,0,0,0,0,0,0,0,0,0,0,0,3,
scooby_state_401d7c|1|1 0,2,0,0,0,0,0,0,0,0,0,0,0,0,0,2,
scooby_state_401e4d|4|-1 1,0,0,0,0,1,0,0,0,0,0,0,0,0,0,2,
scooby_state_401d2b|17|-1 2,0,0,0,0,0,0,0,0,0,0,0,0,0,0,2,
scooby_state_401d4f|54|1 0,2,0,0,0,0,0,0,0,0,0,0,0,0,0,2,
scooby_state_401d2b|41|-1 2,0,0,0,0,0,0,0,0,0,0,0,0,0,0,2,
scooby_state_401e0f|11|-2 2,0,0,0,0,0,0,0,0,0,0,0,0,0,0,2,
scooby_state_401d2b|54|-1 2,0,0,0,0,0,0,0,0,0,0,0,0,0,0,2,
scooby_state_401e0f|32|-2 2,0,0,0,0,0,0,0,0,0,0,0,0,0,0,2,
scooby_state_401d2b|9|-1 2,0,0,0,0,0,0,0,0,0,0,0,0,0,0,2,
scooby_state_401d4f|49|1 0,2,0,0,0,0,0,0,0,0,0,0,0,0,0,2,
scooby_state_401d2b|8|-1 2,0,0,0,0,0,0,0,0,0,0,0,0,0,0,2,
scooby_state_401e0f|22|-2 2,0,0,0,0,0,0,0,0,0,0,0,0,0,0,2,
scooby_state_401d2b|2|-1 2,0,0,0,0,0,0,0,0,0,0,0,0,0,0,2,
scooby_state_401d4f|33|1 0,2,0,0,0,0,0,0,0,0,0,0,0,0,0,2,
scooby_state_401e0f|6|-2 2,0,0,0,0,0,0,0,0,0,0,0,0,0,0,2,
scooby_state_401d4f|53|1 0,2,0,0,0,0,0,0,0,0,0,0,0,0,0,2,
scooby_state_401d2b|1|-1 2,0,0,0,0,0,0,0,0,0,0,0,0,0,0,2,
scooby_state_401ce6|53|-2 2,0,0,0,0,0,0,0,0,0,0,0,0,0,0,2,
scooby_state_401d2b|39|-1 2,0,0,0,0,0,0,0,0,0,0,0,0,0,0,2,
scooby_state_401e0f|19|-2 2,0,0,0,0,0,0,0,0,0,0,0,0,0,0,2,
scooby_state_401e8e|11|1 0,0,0,0,0,2,0,0,0,0,0,0,0,0,0,2,
scooby_state_401e0f|33|-2 2,0,0,0,0,0,0,0,0,0,0,0,0,0,0,2,
scooby_state_401d4f|61|1 0,2,0,0,0,0,0,0,0,0,0,0,0,0,0,2,
scooby_state_401d2b|35|-1 2,0,0,0,0,0,0,0,0,0,0,0,0,0,0,2,
scooby_state_401d4f|32|1 0,2,0,0,0,0,0,0,0,0,0,0,0,0,0,2,
scooby_state_401d2b|6|-1 2,0,0,0,0,0,0,0,0,0,0,0,0,0,0,2,
scooby_state_401d2b|23|-1 2,0,0,0,0,0,0,0,0,0,0,0,0,0,0,2,
scooby_state_401e8e|1|1 1,0,0,0,0,1,0,0,0,0,0,0,0,0,0,2,
scooby_state_401e5a|55|-1 2,0,0,0,0,0,0,0,0,0,0,0,0,0,0,2,
scooby_state_401e0f|12|-2 2,0,0,0,0,0,0,0,0,0,0,0,0,0,0,2,
scooby_state_401d2b|61|-1 2,0,0,0,0,0,0,0,0,0,0,0,0,0,0,2,
scooby_state_401d4f|9|1 0,2,0,0,0,0,0,0,0,0,0,0,0,0,0,2,
scooby_state_401d2b|43|-1 2,0,0,0,0,0,0,0,0,0,0,0,0,0,0,2,
scooby_state_401d4f|59|1 0,2,0,0,0,0,0,0,0,0,0,0,0,0,0,2,
scooby_state_401e0f|9|-2 2,0,0,0,0,0,0,0,0,0,0,0,0,0,0,2,
scooby_state_401e0f|14|-2 2,0,0,0,0,0,0,0,0,0,0,0,0,0,0,2,
scooby_state_401ce6|5|-2 2,0,0,0,0,0,0,0,0,0,0,0,0,0,0,2,
scooby_state_401d2b|25|-1 2,0,0,0,0,0,0,0,0,0,0,0,0,0,0,2,
scooby_state_401e0f|24|-2 2,0,0,0,0,0,0,0,0,0,0,0,0,0,0,2,
scooby_state_401e0f|2|-2 2,0,0,0,0,0,0,0,0,0,0,0,0,0,0,2,
scooby_state_401ce6|19|-2 2,0,0,0,0,0,0,0,0,0,0,0,0,0,0,2,
scooby_state_401e8e|28|1 2,0,0,0,0,0,0,0,0,0,0,0,0,0,0,2,
scooby_state_401d2b|26|-1 2,0,0,0,0,0,0,0,0,0,0,0,0,0,0,2,
scooby_state_401cc5|51|1 1,0,0,0,0,0,0,0,0,0,0,0,0,0,0,1,
scooby_state_401e19|30|-2 0,1,0,0,0,0,0,0,0,0,0,0,0,0,0,1,
scooby_state_401e0f|40|-2 1,0,0,0,0,0,0,0,0,0,0,0,0,0,0,1,
scooby_state_401d60|6|1 0,0,0,0,0,1,0,0,0,0,0,0,0,0,0,1,
scooby_state_4025c2|23|1 1,0,0,0,0,0,0,0,0,0,0,0,0,0,0,1,
scooby_state_401ec5|59|1 1,0,0,0,0,0,0,0,0,0,0,0,0,0,0,1,
scooby_state_401cb0|32|2 1,0,0,0,0,0,0,0,0,0,0,0,0,0,0,1,
scooby_state_401e67|31|-1 0,1,0,0,0,0,0,0,0,0,0,0,0,0,0,1,
scooby_state_401e8e|26|1 0,0,0,0,0,1,0,0,0,0,0,0,0,0,0,1,
scooby_state_401e67|58|-1 0,1,0,0,0,0,0,0,0,0,0,0,0,0,0,1,
scooby_state_401e81|53|1 0,1,0,0,0,0,0,0,0,0,0,0,0,0,0,1,
scooby_state_401e8e|22|1 0,0,0,0,0,1,0,0,0,0,0,0,0,0,0,1,
scooby_state_401e8e|55|1 0,0,0,0,0,1,0,0,0,0,0,0,0,0,0,1,
scooby_state_401d60|46|1 0,0,0,0,0,1,0,0,0,0,0,0,0,0,0,1,
scooby_state_401d14|3|3 0,1,0,0,0,0,0,0,0,0,0,0,0,0,0,1,
scooby_state_401e02|57|2 1,0,0,0,0,0,0,0,0,0,0,0,0,0,0,1,
scooby_state_401e19|37|-2 0,1,0,0,0,0,0,0,0,0,0,0,0,0,0,1,
scooby_state_401d2b|59|-1 1,0,0,0,0,0,0,0,0,0,0,0,0,0,0,1,
scooby_state_401cb0|59|2 1,0,0,0,0,0,0,0,0,0,0,0,0,0,0,1,
scooby_state_401e9b|37|1 0,1,0,0,0,0,0,0,0,0,0,0,0,0,0,1,
scooby_state_402441|17|1 1,0,0,0,0,0,0,0,0,0,0,0,0,0,0,1,
scooby_state_401e02|60|2 1,0,0,0,0,0,0,0,0,0,0,0,0,0,0,1,
scooby_state_401e5a|53|-1 1,0,0,0,0,0,0,0,0,0,0,0,0,0,0,1,
scooby_state_401e67|53|-1 0,1,0,0,0,0,0,0,0,0,0,0,0,0,0,1,
scooby_state_401d7c|1|-1 0,0,0,0,0,1,0,0,0,0,0,0,0,0,0,1,
scooby_state_401e8e|38|1 1,0,0,0,0,0,0,0,0,0,0,0,0,0,0,1,
scooby_state_401d4f|25|1 0,1,0,0,0,0,0,0,0,0,0,0,0,0,0,1,
scooby_state_401ce6|28|-2 1,0,0,0,0,0,0,0,0,0,0,0,0,0,0,1,
scooby_state_401e19|48|-2 0,1,0,0,0,0,0,0,0,0,0,0,0,0,0,1,
scooby_state_401d4f|11|1 0,1,0,0,0,0,0,0,0,0,0,0,0,0,0,1,
scooby_state_401e0f|38|-2 1,0,0,0,0,0,0,0,0,0,0,0,0,0,0,1,
scooby_state_401ce6|60|-2 1,0,0,0,0,0,0,0,0,0,0,0,0,0,0,1,
scooby_state_401e5a|49|-1 0,0,0,0,0,1,0,0,0,0,0,0,0,0,0,1,
scooby_state_401d4f|8|1 0,1,0,0,0,0,0,0,0,0,0,0,0,0,0,1,
scooby_state_401e9b|38|1 0,1,0,0,0,0,0,0,0,0,0,0,0,0,0,1,
scooby_state_401d4f|27|1 0,1,0,0,0,0,0,0,0,0,0,0,0,0,0,1,
scooby_state_401e67|27|-1 0,1,0,0,0,0,0,0,0,0,0,0,0,0,0,1,
scooby_state_401e5a|38|-1 0,0,0,0,0,1,0,0,0,0,0,0,0,0,0,1,
scooby_state_402680|26|1 1,0,0,0,0,0,0,0,0,0,0,0,0,0,0,1,
scooby_state_401d4f|29|1 0,1,0,0,0,0,0,0,0,0,0,0,0,0,0,1,
scooby_state_401d2b|28|-1 1,0,0,0,0,0,0,0,0,0,0,0,0,0,0,1,
scooby_state_401cb0|62|2 1,0,0,0,0,0,0,0,0,0,0,0,0,0,0,1,
scooby_state_401e67|28|-1 0,1,0,0,0,0,0,0,0,0,0,0,0,0,0,1,
scooby_state_401d4f|28|1 0,1,0,0,0,0,0,0,0,0,0,0,0,0,0,1,
scooby_state_402100|4|1 1,0,0,0,0,0,0,0,0,0,0,0,0,0,0,1,
scooby_state_401e02|30|2 1,0,0,0,0,0,0,0,0,0,0,0,0,0,0,1,
scooby_state_401e8e|50|1 0,0,0,0,0,1,0,0,0,0,0,0,0,0,0,1,
scooby_state_401d2b|63|2 0,0,0,0,0,1,0,0,0,0,0,0,0,0,0,1,
scooby_state_401d2b|21|-1 1,0,0,0,0,0,0,0,0,0,0,0,0,0,0,1,
scooby_state_401e9b|48|1 1,0,0,0,0,0,0,0,0,0,0,0,0,0,0,1,
scooby_state_401e0f|23|-2 1,0,0,0,0,0,0,0,0,0,0,0,0,0,0,1,
scooby_state_401d4f|31|1 0,1,0,0,0,0,0,0,0,0,0,0,0,0,0,1,
scooby_state_401d2b|34|-1 1,0,0,0,0,0,0,0,0,0,0,0,0,0,0,1,
scooby_state_402203|8|1 1,0,0,0,0,0,0,0,0,0,0,0,0,0,0,1,
scooby_state_401ce6|21|-2 1,0,0,0,0,0,0,0,0,0,0,0,0,0,0,1,
scooby_state_401d2b|19|-1 1,0,0,0,0,0,0,0,0,0,0,0,0,0,0,1,
scooby_state_401f82|62|1 1,0,0,0,0,0,0,0,0,0,0,0,0,0,0,1,
scooby_state_401ce6|4|-2 1,0,0,0,0,0,0,0,0,0,0,0,0,0,0,1,
scooby_state_401d2b|49|-1 1,0,0,0,0,0,0,0,0,0,0,0,0,0,0,1,
scooby_state_401d4f|58|1 0,1,0,0,0,0,0,0,0,0,0,0,0,0,0,1,
scooby_state_401d4f|45|1 0,1,0,0,0,0,0,0,0,0,0,0,0,0,0,1,
scooby_state_402505|20|1 1,0,0,0,0,0,0,0,0,0,0,0,0,0,0,1,
scooby_state_401e8e|59|1 0,0,0,0,0,1,0,0,0,0,0,0,0,0,0,1,
scooby_state_402704|28|1 1,0,0,0,0,0,0,0,0,0,0,0,0,0,0,1,
scooby_state_401d2b|4|-1 1,0,0,0,0,0,0,0,0,0,0,0,0,0,0,1,
scooby_state_401d4f|38|1 0,1,0,0,0,0,0,0,0,0,0,0,0,0,0,1,
scooby_state_402402|16|1 1,0,0,0,0,0,0,0,0,0,0,0,0,0,0,1,
scooby_state_401d4f|34|1 0,1,0,0,0,0,0,0,0,0,0,0,0,0,0,1,
scooby_state_401e67|29|-1 0,1,0,0,0,0,0,0,0,0,0,0,0,0,0,1,
scooby_state_401ce6|2|-2 1,0,0,0,0,0,0,0,0,0,0,0,0,0,0,1,
scooby_state_401ec5|0|-1 0,1,0,0,0,0,0,0,0,0,0,0,0,0,0,1,
scooby_state_401e0f|3|-2 1,0,0,0,0,0,0,0,0,0,0,0,0,0,0,1,
scooby_state_401ce6|17|-2 1,0,0,0,0,0,0,0,0,0,0,0,0,0,0,1,
scooby_state_401d2b|37|-1 1,0,0,0,0,0,0,0,0,0,0,0,0,0,0,1,
scooby_state_401d4f|13|1 0,1,0,0,0,0,0,0,0,0,0,0,0,0,0,1,
scooby_state_401e19|62|2 1,0,0,0,0,0,0,0,0,0,0,0,0,0,0,1,
scooby_state_401e0f|20|-2 1,0,0,0,0,0,0,0,0,0,0,0,0,0,0,1,
scooby_state_401e19|42|-2 0,1,0,0,0,0,0,0,0,0,0,0,0,0,0,1,
scooby_state_401d4f|6|1 0,1,0,0,0,0,0,0,0,0,0,0,0,0,0,1,
scooby_state_402540|21|1 1,0,0,0,0,0,0,0,0,0,0,0,0,0,0,1,
scooby_state_401ce6|16|-2 1,0,0,0,0,0,0,0,0,0,0,0,0,0,0,1,
scooby_state_402485|18|1 1,0,0,0,0,0,0,0,0,0,0,0,0,0,0,1,
scooby_state_401e19|59|-2 0,1,0,0,0,0,0,0,0,0,0,0,0,0,0,1,
scooby_state_401d4f|46|1 0,1,0,0,0,0,0,0,0,0,0,0,0,0,0,1,
scooby_state_401e0f|7|-2 1,0,0,0,0,0,0,0,0,0,0,0,0,0,0,1,
scooby_state_401d4f|17|1 0,1,0,0,0,0,0,0,0,0,0,0,0,0,0,1,
scooby_state_401d2b|51|-1 1,0,0,0,0,0,0,0,0,0,0,0,0,0,0,1,
scooby_state_401d2b|33|-1 1,0,0,0,0,0,0,0,0,0,0,0,0,0,0,1,
scooby_state_401d2b|20|-1 1,0,0,0,0,0,0,0,0,0,0,0,0,0,0,1,
scooby_state_401d2b|52|-1 1,0,0,0,0,0,0,0,0,0,0,0,0,0,0,1,
scooby_state_401d2b|27|-1 1,0,0,0,0,0,0,0,0,0,0,0,0,0,0,1,
scooby_state_401d4f|44|1 0,1,0,0,0,0,0,0,0,0,0,0,0,0,0,1,
scooby_state_401d4f|10|1 0,1,0,0,0,0,0,0,0,0,0,0,0,0,0,1,
scooby_state_401d4f|41|1 0,1,0,0,0,0,0,0,0,0,0,0,0,0,0,1,
scooby_state_401e02|56|1 1,0,0,0,0,0,0,0,0,0,0,0,0,0,0,1,
scooby_state_401e40|57|1 1,0,0,0,0,0,0,0,0,0,0,0,0,0,0,1,
scooby_state_402780|30|1 1,0,0,0,0,0,0,0,0,0,0,0,0,0,0,1,
scooby_state_402585|22|1 1,0,0,0,0,0,0,0,0,0,0,0,0,0,0,1,
scooby_state_4027cb|31|0 1,0,0,0,0,0,0,0,0,0,0,0,0,0,0,1,
scooby_state_402241|9|1 1,0,0,0,0,0,0,0,0,0,0,0,0,0,0,1,
scooby_state_401f44|61|1 1,0,0,0,0,0,0,0,0,0,0,0,0,0,0,1,
scooby_state_401cb0|50|-9 1,0,0,0,0,0,0,0,0,0,0,0,0,0,0,1,
scooby_state_402081|2|1 1,0,0,0,0,0,0,0,0,0,0,0,0,0,0,1,
scooby_state_401df0|55|0 1,0,0,0,0,0,0,0,0,0,0,0,0,0,0,1,
scooby_state_402142|5|1 1,0,0,0,0,0,0,0,0,0,0,0,0,0,0,1,
scooby_state_401d2b|48|-1 1,0,0,0,0,0,0,0,0,0,0,0,0,0,0,1,
scooby_state_402044|1|1 1,0,0,0,0,0,0,0,0,0,0,0,0,0,0,1,
scooby_state_401d82|54|1 1,0,0,0,0,0,0,0,0,0,0,0,0,0,0,1,
scooby_state_4024c4|19|1 1,0,0,0,0,0,0,0,0,0,0,0,0,0,0,1,
scooby_state_402600|24|1 1,0,0,0,0,0,0,0,0,0,0,0,0,0,0,1,
scooby_state_402304|12|1 1,0,0,0,0,0,0,0,0,0,0,0,0,0,0,1,
scooby_state_402642|25|1 1,0,0,0,0,0,0,0,0,0,0,0,0,0,0,1,
scooby_state_402741|29|1 1,0,0,0,0,0,0,0,0,0,0,0,0,0,0,1,
scooby_state_402382|14|1 1,0,0,0,0,0,0,0,0,0,0,0,0,0,0,1,
scooby_state_401f00|60|6 1,0,0,0,0,0,0,0,0,0,0,0,0,0,0,1,
scooby_state_402183|6|1 1,0,0,0,0,0,0,0,0,0,0,0,0,0,0,1,
scooby_state_401d4f|55|1 0,1,0,0,0,0,0,0,0,0,0,0,0,0,0,1,
scooby_state_401e67|61|-1 0,1,0,0,0,0,0,0,0,0,0,0,0,0,0,1,
scooby_state_401fc1|63|1 1,0,0,0,0,0,0,0,0,0,0,0,0,0,0,1,
scooby_state_401e33|47|1 1,0,0,0,0,0,0,0,0,0,0,0,0,0,0,1,
scooby_state_401d2b|31|-1 1,0,0,0,0,0,0,0,0,0,0,0,0,0,0,1,
scooby_state_401d4f|16|1 0,1,0,0,0,0,0,0,0,0,0,0,0,0,0,1,
scooby_state_402345|13|1 1,0,0,0,0,0,0,0,0,0,0,0,0,0,0,1,
scooby_state_4026c4|27|1 1,0,0,0,0,0,0,0,0,0,0,0,0,0,0,1,
scooby_state_4022c0|11|1 1,0,0,0,0,0,0,0,0,0,0,0,0,0,0,1,
scooby_state_401e67|52|-1 0,1,0,0,0,0,0,0,0,0,0,0,0,0,0,1,
scooby_state_401e19|11|-2 0,1,0,0,0,0,0,0,0,0,0,0,0,0,0,1,
scooby_state_402000|0|-31 1,0,0,0,0,0,0,0,0,0,0,0,0,0,0,1,
scooby_state_4023c0|15|1 1,0,0,0,0,0,0,0,0,0,0,0,0,0,0,1,
scooby_state_401e74|1|1 0,1,0,0,0,0,0,0,0,0,0,0,0,0,0,1,
scooby_state_401d03|52|1 1,0,0,0,0,0,0,0,0,0,0,0,0,0,0,1,
scooby_state_402285|10|1 1,0,0,0,0,0,0,0,0,0,0,0,0,0,0,1,
scooby_state_4021c2|7|1 1,0,0,0,0,0,0,0,0,0,0,0,0,0,0,1,
scooby_state_401e8e|10|1 1,0,0,0,0,0,0,0,0,0,0,0,0,0,0,1,
scooby_state_4020c2|3|1 1,0,0,0,0,0,0,0,0,0,0,0,0,0,0,1,
scooby_state_401df5|46|0 1,0,0,0,0,0,0,0,0,0,0,0,0,0,0,1,
scooby_state_401ce6|56|-2 1,0,0,0,0,0,0,0,0,0,0,0,0,0,0,1,
scooby_state_401d60|12|1 0,0,0,0,0,1,0,0,0,0,0,0,0,0,0,1,

scooby_action_0_deg_dist 0,866,0,0,0,0,0,0,0,0,0,0,0,0,0,0,
scooby_action_4_deg_dist 0,1107,0,0,0,0,0,0,0,0,0,0,0,0,0,0,
scooby_action_3_deg_dist 0,764836,326322,0,650059,0,1424265,0,0,0,0,0,0,0,0,0,
scooby_action_32_deg_dist 0,897,0,0,0,0,0,0,0,0,0,0,0,0,0,0,
scooby_action_5_deg_dist 0,1113,0,0,0,0,0,0,0,0,0,0,0,0,0,0,
scooby_action_1_deg_dist 0,907383,349298,0,767823,0,1683852,0,0,0,0,0,0,0,0,0,
scooby_action_30_deg_dist 0,969,0,0,0,0,0,0,0,0,0,0,0,0,0,0,
scooby_action_-3_deg_dist 0,846,0,0,0,0,0,0,0,0,0,0,0,0,0,0,
scooby_action_10_deg_dist 0,207332,5,0,0,0,0,0,0,0,0,0,0,0,0,0,
scooby_action_-1_deg_dist 0,847,0,0,0,0,0,0,0,0,0,0,0,0,0,0,
scooby_action_23_deg_dist 0,1102,0,0,0,0,0,0,0,0,0,0,0,0,0,0,
scooby_action_-6_deg_dist 0,838,0,0,0,0,0,0,0,0,0,0,0,0,0,0,
scooby_action_11_deg_dist 0,11502,0,0,0,0,0,0,0,0,0,0,0,0,0,0,
scooby_action_22_deg_dist 0,1187,0,0,0,0,0,0,0,0,0,0,0,0,0,0,
scooby_action_12_deg_dist 0,1230,0,0,0,0,0,0,0,0,0,0,0,0,0,0,

scooby_track_called 7103679
scooby_track_same_address 1333163
scooby_track_evict 5770260

scooby_reward_demand_called 7103679
scooby_reward_demand_pt_not_found 1582275
scooby_reward_demand_pt_found 5521404
scooby_reward_demand_pt_found_total 5521404
scooby_reward_demand_has_reward 345
scooby_reward_train_called 8440
scooby_reward_assign_reward_called 5770512
scooby_reward_no_pref 866
scooby_reward_incorrect 7574
scooby_reward_correct_untimely 4900003
scooby_reward_correct_timely 621056
scooby_reward_out_of_bounds 241013
scooby_reward_tracker_hit 0

scooby_reward_none_low_bw 866
scooby_reward_none_high_bw 0
scooby_reward_incorrect_low_bw 7574
scooby_reward_incorrect_high_bw 0
scooby_reward_correct_untimely_low_bw 4900003
scooby_reward_correct_untimely_high_bw 0
scooby_reward_correct_timely_low_bw 621056
scooby_reward_correct_timely_high_bw 0
scooby_reward_out_of_bounds_low_bw 241013
scooby_reward_out_of_bounds_high_bw 0
scooby_reward_tracker_hit_low_bw 0
scooby_reward_tracker_hit_high_bw 0

scooby_reward_1 0,3601,2415506,235785,57791,0,
scooby_reward_3 0,3371,2353678,331621,141266,0,
scooby_reward_4 0,0,631,154,295,0,
scooby_reward_5 0,1,567,202,321,0,
scooby_reward_10 0,3,127338,47219,32678,0,
scooby_reward_11 0,0,1878,3792,5827,0,
scooby_reward_12 0,1,264,435,529,0,
scooby_reward_22 0,0,72,505,610,0,
scooby_reward_23 0,0,41,517,544,0,
scooby_reward_30 0,0,11,444,514,0,
scooby_reward_32 0,0,7,381,508,0,
scooby_reward_-1 0,204,10,1,9,0,
scooby_reward_-3 0,209,0,0,40,0,
scooby_reward_-6 0,184,0,0,81,0,
scooby_reward_0 866,0,0,0,0,0,

scooby_train_called 5770259
scooby_train_compute_reward 8440

scooby_register_fill_called 6387059
scooby_register_fill_set 622499
scooby_register_fill_set_total 622499

scooby_register_prefetch_hit_called 15968478
scooby_register_prefetch_hit_set 4827833
scooby_register_prefetch_hit_set_total 4827833

scooby_pref_issue_scooby 32377885

learning_engine_featurewise.action.called 7103679
learning_engine_featurewise.action.explore 12860
learning_engine_featurewise.action.exploit 7090819
learning_engine_featurewise.action.fallback 0
learning_engine_featurewise.action.dyn_fallback_saved_bw 0
learning_engine_featurewise.action.dyn_fallback_saved_bw_acc 202555
learning_engine_featurewise.action.index_1_explored 882
learning_engine_featurewise.action.index_1_exploited 3707474
learning_engine_featurewise.action.index_3_explored 861
learning_engine_featurewise.action.index_3_exploited 3164621
learning_engine_featurewise.action.index_4_explored 866
learning_engine_featurewise.action.index_4_exploited 241
learning_engine_featurewise.action.index_5_explored 846
learning_engine_featurewise.action.index_5_exploited 267
learning_engine_featurewise.action.index_10_explored 890
learning_engine_featurewise.action.index_10_exploited 206447
learning_engine_featurewise.action.index_11_explored 864
learning_engine_featurewise.action.index_11_exploited 10638
learning_engine_featurewise.action.index_12_explored 874
learning_engine_featurewise.action.index_12_exploited 356
learning_engine_featurewise.action.index_22_explored 867
learning_engine_featurewise.action.index_22_exploited 320
learning_engine_featurewise.action.index_23_explored 867
learning_engine_featurewise.action.index_23_exploited 235
learning_engine_featurewise.action.index_30_explored 844
learning_engine_featurewise.action.index_30_exploited 125
learning_engine_featurewise.action.index_32_explored 802
learning_engine_featurewise.action.index_32_exploited 95
learning_engine_featurewise.action.index_-1_explored 847
learning_engine_featurewise.action.index_-1_exploited 0
learning_engine_featurewise.action.index_-3_explored 846
learning_engine_featurewise.action.index_-3_exploited 0
learning_engine_featurewise.action.index_-6_explored 838
learning_engine_featurewise.action.index_-6_exploited 0
learning_engine_featurewise.action.index_0_explored 866
learning_engine_featurewise.action.index_0_exploited 0
learning_engine_featurewise.learn.called 5770259
learning_engine_featurewise.learn.su_skip_PC 0
learning_engine_featurewise.learn.su_skip_PC_Delta 0

learning_engine_featurewise.q_value_histogram.bucket_0 0
learning_engine_featurewise.q_value_histogram.bucket_1 0
learning_engine_featurewise.q_value_histogram.bucket_2 0
learning_engine_featurewise.q_value_histogram.bucket_3 24
learning_engine_featurewise.q_value_histogram.bucket_4 1351
learning_engine_featurewise.q_value_histogram.bucket_5 1989
learning_engine_featurewise.q_value_histogram.bucket_6 7087455
learning_engine_featurewise.q_value_histogram.bucket_7 0

learning_engine_featurewise.consensus.total 7090819
learning_engine_featurewise.consensus.feature_align_PC 6809254
learning_engine_featurewise.consensus.feature_align_PC_ratio 0.96
learning_engine_featurewise.consensus.feature_align_PC_Delta 7082847
learning_engine_featurewise.consensus.feature_align_PC_Delta_ratio 1.00
learning_engine_featurewise.consensus.feature_align_all 6801282
learning_engine_featurewise.consensus.feature_align_all_ratio 0.96

learning_engine_featurewise.feature_PC_min_weight 1000000.00000000
learning_engine_featurewise.feature_PC_max_weight 0.00000000
learning_engine_featurewise.feature_PC_Delta_min_weight 1000000.00000000
learning_engine_featurewise.feature_PC_Delta_max_weight 0.00000000
unique_pcs 78
unique_pages 110855
unique_trigger_pcs 9
total_bitmaps_seen 0
unique_bitmaps_seen 0

scooby_bw_epochs 5298141
scooby_bw_level_0 891889
scooby_bw_level_1 2492714
scooby_bw_level_2 1415061
scooby_bw_level_3 498477

scooby_ipc_epochs 0
scooby_ipc_level_0 0
scooby_ipc_level_1 0
scooby_ipc_level_2 0
scooby_ipc_level_3 0

scooby_cache_acc_epochs 1288821
scooby_cache_acc_level_0 7754
scooby_cache_acc_level_1 21304
scooby_cache_acc_level_2 31844
scooby_cache_acc_level_3 44735
scooby_cache_acc_level_4 60653
scooby_cache_acc_level_5 85191
scooby_cache_acc_level_6 109197
scooby_cache_acc_level_7 115295
scooby_cache_acc_level_8 108985
scooby_cache_acc_level_9 703863

Channel_0_RQ_row_buffer_hit 2864344
Channel_0_RQ_row_buffer_miss 20796607
Channel_0_WQ_row_buffer_hit 1993493
Channel_0_WQ_row_buffer_miss 15762256
Channel_0_WQ_full 120
Channel_0_dbus_congested 28787682

avg_congested_cycle 11

DRAM_bw_pochs 5298141
DRAM_bw_level_0 891889
DRAM_bw_level_1 2492714
DRAM_bw_level_2 1415061
DRAM_bw_level_3 498477
