*************************************************
   ChampSim Multicore Out-of-Order Simulator
   Last compiled: Apr 12 2025 13:21:49
*************************************************
parsing config file: /home/Pythia/config/pythia.ini

trace_0 /home/Pythia/traces/649.fotonik3d_s-10881B.champsimtrace.xz
adding L2C_PREFETCHER: Scooby
Initialize SHIP state
warmup_instructions 100000000
simulation_instructions 500000000
champsim_seed 324
measure_ipc 0
measure_ipc_epoch 1000
measure_dram_bw 1
measure_dram_bw_epoch 256
measure_cache_acc 1
measure_cache_acc_epoch 1024
l1d_perfect 0
l2c_perfect 0
llc_perfect 0
l1d_semi_perfect 0
l2c_semi_perfect 0
llc_semi_perfect 0
semi_perfect_cache_page_buffer_size 64

num_cpus 1
cpu_freq 4000
dram_io_freq 2400
page_size 4096
block_size 64
max_read_per_cycle 8
max_fill_per_cycle 1
dram_channels 1
log2_dram_channels 0
dram_ranks 1
dram_banks 8
dram_rows 65536
dram_columns 128
dram_row_size 8
dram_size 4096
dram_pages 1048576

fetch_width 6
decode_width 6
exec_width 4
lq_width 2
sq_width 2
retire_width 4
scheduler_size 128
branch_mispredict_penalty 20
rob_size 256
lq_size 72
sq_size 56
num_instr_destinations_sparc 4
num_instr_destinations 2
num_instr_sources 4

itlb_set 16
itlb_way 8
itlb_rq_size 16
itlb_wq_size 16
itlb_pq_size 0
itlb_mshr_size 8
itlb_latency 1

dtlb_set 16
dtlb_way 4
dtlb_rq_size 16
dtlb_wq_size 16
dtlb_pq_size 0
dtlb_mshr_size 8
dtlb_latency 1

stlb_set 128
stlb_way 12
stlb_rq_size 32
stlb_wq_size 32
stlb_pq_size 0
stlb_mshr_size 16
stlb_latency 8

l1i_size 32
l1i_set 64
l1i_way 8
l1i_rq_size 64
l1i_wq_size 64
l1i_pq_size 8
l1i_mshr_size 8
l1i_latency 1

l1d_size 32
l1d_set 64
l1d_way 8
l1d_rq_size 64
l1d_wq_size 64
l1d_pq_size 8
l1d_mshr_size 16
l1d_latency 4

l2c_size 256
l2c_set 512
l2c_way 8
l2c_rq_size 32
l2c_wq_size 32
l2c_pq_size 32
l2c_mshr_size 32
l2c_latency 10

llc_size 2048
llc_set 2048
llc_way 16
llc_rq_size 32
llc_wq_size 32
llc_pq_size 32
llc_mshr_size 64
llc_latency 20

dram_channel_width 8
dram_wq_size 64
dram_rq_size 64
tRP 15
tRCD 15
tCAS 12.5
dram_dbus_turn_around_time 30
dram_write_high_wm 56
dram_write_low_wm 48
min_dram_writes_per_switch 16
dram_mtps 2400
dram_dbus_return_time 13

scooby_alpha 0.0065088
scooby_gamma 0.556301
scooby_epsilon 0.00182284
scooby_state_num_bits 10
scooby_max_states 1024
scooby_seed 200
scooby_policy EGreedy
scooby_learning_type SARSA
scooby_actions 1,3,4,5,10,11,12,22,23,30,32,-1,-3,-6,0,
scooby_max_actions 15
scooby_pt_size 256
scooby_st_size 64
scooby_max_pcs 5
scooby_max_offsets 5
scooby_max_deltas 5
scooby_reward_none -4
scooby_reward_incorrect -8
scooby_reward_correct_untimely 12
scooby_reward_correct_timely 20
scooby_brain_zero_init 0
scooby_enable_reward_all 0
scooby_enable_track_multiple 0
scooby_enable_reward_out_of_bounds 1
scooby_reward_out_of_bounds -12
scooby_state_type 1
scooby_state_hash_type 11
scooby_access_debug 0
scooby_print_access_debug 0
scooby_print_access_debug_pc deadbeef
scooby_print_access_debug_pc_count 0
scooby_print_trace 0
scooby_enable_state_action_stats 1
scooby_enable_reward_tracker_hit 0
scooby_reward_tracker_hit -2
scooby_enable_featurewise_engine 1
scooby_pref_degree 1
scooby_enable_dyn_degree 1
scooby_max_to_avg_q_thresholds 0.5,1,2,
scooby_dyn_degrees 1,2,4,4,
scooby_multi_deg_select_type 2
scooby_last_pref_offset_conf_thresholds 1,3,8,
scooby_dyn_degrees_type2 1,2,4,6,
scooby_action_tracker_size 2
scooby_high_bw_thresh 4
scooby_enable_hbw_reward 1
scooby_reward_hbw_correct_timely 20
scooby_reward_hbw_correct_untimely 12
scooby_reward_hbw_incorrect -14
scooby_reward_hbw_none -2
scooby_reward_hbw_out_of_bounds -12
scooby_reward_hbw_tracker_hit -2
scooby_last_pref_offset_conf_thresholds_hbw 1,3,8,
scooby_dyn_degrees_type2_hbw 1,2,4,6,

le_enable_trace 0
le_trace_interval 0
le_trace_file_name 
le_trace_state 0
le_enable_score_plot 0
le_plot_file_name 
le_plot_actions 
le_enable_action_trace 0
le_action_trace_interval 0
le_action_trace_name 
le_enable_action_plot 0

le_featurewise_active_features PC, PC_Delta
le_featurewise_num_tilings 3,3,
le_featurewise_num_tiles 128,128,
le_featurewise_hash_types 2,2,
le_featurewise_enable_tiling_offset 1,1,
le_featurewise_max_q_thresh 0.5
le_featurewise_enable_action_fallback 1
le_featurewise_feature_weights 1,1,
le_featurewise_enable_dynamic_weight 0
le_featurewise_weight_gradient 0.001
le_featurewise_disable_adjust_weight_all_features_align 1
le_featurewise_selective_update 0
le_featurewise_pooling_type 2
le_featurewise_enable_dyn_action_fallback 1
le_featurewise_bw_acc_check_level 1
le_featurewise_acc_thresh 2
le_featurewise_enable_trace 0
le_featurewise_trace_feature_type 0
le_featurewise_trace_feature 
le_featurewise_trace_interval 0
le_featurewise_trace_record_count 0
le_featurewise_trace_file_name 
le_featurewise_enable_score_plot 0
le_featurewise_plot_actions 
le_featurewise_plot_file_name 


[DEBUG] handlePhaseChange -> MAJOR reset (weights & contexts)
[DEBUG] handlePhaseChange() invoked with level = 2
[DEBUG] handlePhaseChange -> MAJOR reset (weights & contexts)
[DEBUG] handlePhaseChange() invoked with level = 2
[DEBUG] handlePhaseChange -> MAJOR reset (weights & contexts)
[DEBUG] handlePhaseChange() invoked with level = 2
[DEBUG] handlePhaseChange -> MAJOR reset (weights & contexts)
[DEBUG] handlePhaseChange() invoked with level = 2
[DEBUG] handlePhaseChange -> MAJOR reset (weights & contexts)
[DEBUG] handlePhaseChange() invoked with level = 2
[DEBUG] handlePhaseChange -> MAJOR reset (weights & contexts)
[DEBUG] handlePhaseChange() invoked with level = 2
[DEBUG] handlePhaseChange -> MAJOR reset (weights & contexts)
[DEBUG] handlePhaseChange() invoked with level = 2
[DEBUG] handlePhaseChange -> MAJOR reset (weights & contexts)
[DEBUG] handlePhaseChange() invoked with level = 2
[DEBUG] handlePhaseChange -> MAJOR reset (weights & contexts)
[DEBUG] handlePhaseChange() invoked with level = 2
[DEBUG] handlePhaseChange -> MAJOR reset (weights & contexts)
[DEBUG] handlePhaseChange() invoked with level = 2
[DEBUG] handlePhaseChange -> MAJOR reset (weights & contexts)
[DEBUG] handlePhaseChange() invoked with level = 2
[DEBUG] handlePhaseChange -> MAJOR reset (weights & contexts)
[DEBUG] handlePhaseChange() invoked with level = 2
[DEBUG] handlePhaseChange -> MAJOR reset (weights & contexts)
[DEBUG] handlePhaseChange() invoked with level = 2
[DEBUG] handlePhaseChange -> MAJOR reset (weights & contexts)
[DEBUG] handlePhaseChange() invoked with level = 2
[DEBUG] handlePhaseChange -> MAJOR reset (weights & contexts)
[DEBUG] handlePhaseChange() invoked with level = 2
[DEBUG] handlePhaseChange -> MAJOR reset (weights & contexts)
[DEBUG] handlePhaseChange() invoked with level = 2
[DEBUG] handlePhaseChange -> MAJOR reset (weights & contexts)
[DEBUG] handlePhaseChange() invoked with level = 2
[DEBUG] handlePhaseChange -> MAJOR reset (weights & contexts)
[DEBUG] handlePhaseChange() invoked with level = 2
[DEBUG] handlePhaseChange -> MAJOR reset (weights & contexts)
[DEBUG] handlePhaseChange() invoked with level = 2
[DEBUG] handlePhaseChange -> MAJOR reset (weights & contexts)
[DEBUG] handlePhaseChange() invoked with level = 2
[DEBUG] handlePhaseChange -> MAJOR reset (weights & contexts)
[DEBUG] handlePhaseChange() invoked with level = 2
[DEBUG] handlePhaseChange -> MAJOR reset (weights & contexts)
[DEBUG] handlePhaseChange() invoked with level = 2
[DEBUG] handlePhaseChange -> MAJOR reset (weights & contexts)
[DEBUG] handlePhaseChange() invoked with level = 2
[DEBUG] handlePhaseChange -> MAJOR reset (weights & contexts)
[DEBUG] handlePhaseChange() invoked with level = 2
[DEBUG] handlePhaseChange -> MAJOR reset (weights & contexts)
[DEBUG] handlePhaseChange() invoked with level = 2
[DEBUG] handlePhaseChange -> MAJOR reset (weights & contexts)
[DEBUG] handlePhaseChange() invoked with level = 2
[DEBUG] handlePhaseChange -> MAJOR reset (weights & contexts)
[DEBUG] handlePhaseChange() invoked with level = 2
[DEBUG] handlePhaseChange -> MAJOR reset (weights & contexts)
[DEBUG] handlePhaseChange() invoked with level = 2
[DEBUG] handlePhaseChange -> MAJOR reset (weights & contexts)
[DEBUG] handlePhaseChange() invoked with level = 2
[DEBUG] handlePhaseChange -> MAJOR reset (weights & contexts)
[DEBUG] handlePhaseChange() invoked with level = 2
[DEBUG] handlePhaseChange -> MAJOR reset (weights & contexts)
[DEBUG] handlePhaseChange() invoked with level = 2
[DEBUG] handlePhaseChange -> MAJOR reset (weights & contexts)
[DEBUG] handlePhaseChange() invoked with level = 2
[DEBUG] handlePhaseChange -> MAJOR reset (weights & contexts)
[DEBUG] handlePhaseChange() invoked with level = 2
[DEBUG] handlePhaseChange -> MAJOR reset (weights & contexts)
[DEBUG] handlePhaseChange() invoked with level = 2
[DEBUG] handlePhaseChange -> MAJOR reset (weights & contexts)
[DEBUG] handlePhaseChange() invoked with level = 2
[DEBUG] handlePhaseChange -> MAJOR reset (weights & contexts)
[DEBUG] handlePhaseChange() invoked with level = 2
[DEBUG] handlePhaseChange -> MAJOR reset (weights & contexts)
[DEBUG] handlePhaseChange() invoked with level = 2
[DEBUG] handlePhaseChange -> MAJOR reset (weights & contexts)
[DEBUG] handlePhaseChange() invoked with level = 2
[DEBUG] handlePhaseChange -> MAJOR reset (weights & contexts)
[DEBUG] handlePhaseChange() invoked with level = 2
[DEBUG] handlePhaseChange -> MAJOR reset (weights & contexts)
[DEBUG] handlePhaseChange() invoked with level = 2
[DEBUG] handlePhaseChange -> MAJOR reset (weights & contexts)
[DEBUG] handlePhaseChange() invoked with level = 2
[DEBUG] handlePhaseChange -> MAJOR reset (weights & contexts)
[DEBUG] handlePhaseChange() invoked with level = 2
[DEBUG] handlePhaseChange -> MAJOR reset (weights & contexts)
[DEBUG] handlePhaseChange() invoked with level = 2
[DEBUG] handlePhaseChange -> MAJOR reset (weights & contexts)
[DEBUG] handlePhaseChange() invoked with level = 2
[DEBUG] handlePhaseChange -> MAJOR reset (weights & contexts)
[DEBUG] handlePhaseChange() invoked with level = 2
[DEBUG] handlePhaseChange -> MAJOR reset (weights & contexts)
[DEBUG] handlePhaseChange() invoked with level = 2
[DEBUG] handlePhaseChange -> MAJOR reset (weights & contexts)
[DEBUG] handlePhaseChange() invoked with level = 2
[DEBUG] handlePhaseChange -> MAJOR reset (weights & contexts)
[DEBUG] handlePhaseChange() invoked with level = 2
[DEBUG] handlePhaseChange -> MAJOR reset (weights & contexts)
[DEBUG] handlePhaseChange() invoked with level = 2
[DEBUG] handlePhaseChange -> MAJOR reset (weights & contexts)
[DEBUG] handlePhaseChange() invoked with level = 2
[DEBUG] handlePhaseChange -> MAJOR reset (weights & contexts)
[DEBUG] handlePhaseChange() invoked with level = 2
[DEBUG] handlePhaseChange -> MAJOR reset (weights & contexts)
[DEBUG] handlePhaseChange() invoked with level = 2
[DEBUG] handlePhaseChange -> MAJOR reset (weights & contexts)
[DEBUG] handlePhaseChange() invoked with level = 2
[DEBUG] handlePhaseChange -> MAJOR reset (weights & contexts)
[DEBUG] handlePhaseChange() invoked with level = 2
[DEBUG] handlePhaseChange -> MAJOR reset (weights & contexts)
[DEBUG] handlePhaseChange() invoked with level = 2
[DEBUG] handlePhaseChange -> MAJOR reset (weights & contexts)
[DEBUG] handlePhaseChange() invoked with level = 2
[DEBUG] handlePhaseChange -> MAJOR reset (weights & contexts)
[DEBUG] handlePhaseChange() invoked with level = 2
[DEBUG] handlePhaseChange -> MAJOR reset (weights & contexts)
[DEBUG] handlePhaseChange() invoked with level = 2
[DEBUG] handlePhaseChange -> MAJOR reset (weights & contexts)
[DEBUG] handlePhaseChange() invoked with level = 2
[DEBUG] handlePhaseChange -> MAJOR reset (weights & contexts)
[DEBUG] handlePhaseChange() invoked with level = 2
[DEBUG] handlePhaseChange -> MAJOR reset (weights & contexts)
[DEBUG] handlePhaseChange() invoked with level = 2
[DEBUG] handlePhaseChange -> MAJOR reset (weights & contexts)
[DEBUG] handlePhaseChange() invoked with level = 2
[DEBUG] handlePhaseChange -> MAJOR reset (weights & contexts)
[DEBUG] handlePhaseChange() invoked with level = 2
[DEBUG] handlePhaseChange -> MAJOR reset (weights & contexts)
[DEBUG] handlePhaseChange() invoked with level = 2
[DEBUG] handlePhaseChange -> MAJOR reset (weights & contexts)
[DEBUG] handlePhaseChange() invoked with level = 2
[DEBUG] handlePhaseChange -> MAJOR reset (weights & contexts)
[DEBUG] handlePhaseChange() invoked with level = 2
[DEBUG] handlePhaseChange -> MAJOR reset (weights & contexts)
[DEBUG] handlePhaseChange() invoked with level = 2
[DEBUG] handlePhaseChange -> MAJOR reset (weights & contexts)
[DEBUG] handlePhaseChange() invoked with level = 2
[DEBUG] handlePhaseChange -> MAJOR reset (weights & contexts)
[DEBUG] handlePhaseChange() invoked with level = 2
[DEBUG] handlePhaseChange -> MAJOR reset (weights & contexts)
[DEBUG] handlePhaseChange() invoked with level = 2
[DEBUG] handlePhaseChange -> MAJOR reset (weights & contexts)
[DEBUG] handlePhaseChange() invoked with level = 2
[DEBUG] handlePhaseChange -> MAJOR reset (weights & contexts)
[DEBUG] handlePhaseChange() invoked with level = 2
[DEBUG] handlePhaseChange -> MAJOR reset (weights & contexts)
[DEBUG] handlePhaseChange() invoked with level = 2
[DEBUG] handlePhaseChange -> MAJOR reset (weights & contexts)
[DEBUG] handlePhaseChange() invoked with level = 2
[DEBUG] handlePhaseChange -> MAJOR reset (weights & contexts)
[DEBUG] handlePhaseChange() invoked with level = 2
[DEBUG] handlePhaseChange -> MAJOR reset (weights & contexts)
[DEBUG] handlePhaseChange() invoked with level = 2
[DEBUG] handlePhaseChange -> MAJOR reset (weights & contexts)
[DEBUG] handlePhaseChange() invoked with level = 2
[DEBUG] handlePhaseChange -> MAJOR reset (weights & contexts)
[DEBUG] handlePhaseChange() invoked with level = 2
[DEBUG] handlePhaseChange -> MAJOR reset (weights & contexts)
[DEBUG] handlePhaseChange() invoked with level = 2
[DEBUG] handlePhaseChange -> MAJOR reset (weights & contexts)
[DEBUG] handlePhaseChange() invoked with level = 2
[DEBUG] handlePhaseChange -> MAJOR reset (weights & contexts)
[DEBUG] handlePhaseChange() invoked with level = 2
[DEBUG] handlePhaseChange -> MAJOR reset (weights & contexts)
[DEBUG] handlePhaseChange() invoked with level = 2
[DEBUG] handlePhaseChange -> MAJOR reset (weights & contexts)
[DEBUG] handlePhaseChange() invoked with level = 2
[DEBUG] handlePhaseChange -> MAJOR reset (weights & contexts)
[DEBUG] handlePhaseChange() invoked with level = 2
[DEBUG] handlePhaseChange -> MAJOR reset (weights & contexts)
[DEBUG] handlePhaseChange() invoked with level = 2
[DEBUG] handlePhaseChange -> MAJOR reset (weights & contexts)
[DEBUG] handlePhaseChange() invoked with level = 2
[DEBUG] handlePhaseChange -> MAJOR reset (weights & contexts)
[DEBUG] handlePhaseChange() invoked with level = 2
[DEBUG] handlePhaseChange -> MAJOR reset (weights & contexts)
[DEBUG] handlePhaseChange() invoked with level = 2
[DEBUG] handlePhaseChange -> MAJOR reset (weights & contexts)
[DEBUG] handlePhaseChange() invoked with level = 2
[DEBUG] handlePhaseChange -> MAJOR reset (weights & contexts)
[DEBUG] handlePhaseChange() invoked with level = 2
[DEBUG] handlePhaseChange -> MAJOR reset (weights & contexts)
[DEBUG] handlePhaseChange() invoked with level = 2
[DEBUG] handlePhaseChange -> MAJOR reset (weights & contexts)
[DEBUG] handlePhaseChange() invoked with level = 2
[DEBUG] handlePhaseChange -> MAJOR reset (weights & contexts)
[DEBUG] handlePhaseChange() invoked with level = 2
[DEBUG] handlePhaseChange -> MAJOR reset (weights & contexts)
[DEBUG] handlePhaseChange() invoked with level = 2
[DEBUG] handlePhaseChange -> MAJOR reset (weights & contexts)
[DEBUG] handlePhaseChange() invoked with level = 2
[DEBUG] handlePhaseChange -> MAJOR reset (weights & contexts)
[DEBUG] handlePhaseChange() invoked with level = 2
[DEBUG] handlePhaseChange -> MAJOR reset (weights & contexts)
[DEBUG] handlePhaseChange() invoked with level = 2
[DEBUG] handlePhaseChange -> MAJOR reset (weights & contexts)
[DEBUG] handlePhaseChange() invoked with level = 2
[DEBUG] handlePhaseChange -> MAJOR reset (weights & contexts)
[DEBUG] handlePhaseChange() invoked with level = 2
[DEBUG] handlePhaseChange -> MAJOR reset (weights & contexts)
[DEBUG] handlePhaseChange() invoked with level = 2
[DEBUG] handlePhaseChange -> MAJOR reset (weights & contexts)
[DEBUG] handlePhaseChange -> MAJOR reset (weights & contexts)
[DEBUG] handlePhaseChange -> MAJOR reset (weights & contexts)
[DEBUG] handlePhaseChange -> MAJOR reset (weights & contexts)
[DEBUG] handlePhaseChange -> MAJOR reset (weights & contexts)
[DEBUG] handlePhaseChange -> MAJOR reset (weights & contexts)
[DEBUG] handlePhaseChange -> MAJOR reset (weights & contexts)
[DEBUG] handlePhaseChange -> MAJOR reset (weights & contexts)
[DEBUG] handlePhaseChange -> MAJOR reset (weights & contexts)
[DEBUG] handlePhaseChange -> MAJOR reset (weights & contexts)
[DEBUG] handlePhaseChange -> MAJOR reset (weights & contexts)
[DEBUG] handlePhaseChange -> MAJOR reset (weights & contexts)
[DEBUG] handlePhaseChange -> MAJOR reset (weights & contexts)
[DEBUG] handlePhaseChange -> MAJOR reset (weights & contexts)
[DEBUG] handlePhaseChange -> MAJOR reset (weights & contexts)
[DEBUG] handlePhaseChange -> MAJOR reset (weights & contexts)
[DEBUG] handlePhaseChange -> MAJOR reset (weights & contexts)
[DEBUG] handlePhaseChange -> MAJOR reset (weights & contexts)
[DEBUG] handlePhaseChange -> MAJOR reset (weights & contexts)
[DEBUG] handlePhaseChange -> MAJOR reset (weights & contexts)
[DEBUG] handlePhaseChange -> MAJOR reset (weights & contexts)
[DEBUG] handlePhaseChange -> MAJOR reset (weights & contexts)
[DEBUG] handlePhaseChange -> MAJOR reset (weights & contexts)
[DEBUG] handlePhaseChange -> MAJOR reset (weights & contexts)
[DEBUG] handlePhaseChange -> MAJOR reset (weights & contexts)
[DEBUG] handlePhaseChange -> MAJOR reset (weights & contexts)
[DEBUG] handlePhaseChange -> MAJOR reset (weights & contexts)
[DEBUG] handlePhaseChange -> MAJOR reset (weights & contexts)
[DEBUG] handlePhaseChange -> MAJOR reset (weights & contexts)
[DEBUG] handlePhaseChange -> MAJOR reset (weights & contexts)
[DEBUG] handlePhaseChange -> MAJOR reset (weights & contexts)
[DEBUG] handlePhaseChange -> MAJOR reset (weights & contexts)
[DEBUG] handlePhaseChange -> MAJOR reset (weights & contexts)
[DEBUG] handlePhaseChange -> MAJOR reset (weights & contexts)
[DEBUG] handlePhaseChange -> MAJOR reset (weights & contexts)
[DEBUG] handlePhaseChange -> MAJOR reset (weights & contexts)
[DEBUG] handlePhaseChange -> MAJOR reset (weights & contexts)
[DEBUG] handlePhaseChange -> MAJOR reset (weights & contexts)
[DEBUG] handlePhaseChange -> MAJOR reset (weights & contexts)
[DEBUG] handlePhaseChange -> MAJOR reset (weights & contexts)
[DEBUG] handlePhaseChange -> MAJOR reset (weights & contexts)
[DEBUG] handlePhaseChange -> MAJOR reset (weights & contexts)
[DEBUG] handlePhaseChange -> MAJOR reset (weights & contexts)
[DEBUG] handlePhaseChange -> MAJOR reset (weights & contexts)
[DEBUG] handlePhaseChange -> MAJOR reset (weights & contexts)
[DEBUG] handlePhaseChange -> MAJOR reset (weights & contexts)
[DEBUG] handlePhaseChange -> MAJOR reset (weights & contexts)
[DEBUG] handlePhaseChange -> MAJOR reset (weights & contexts)
[DEBUG] handlePhaseChange -> MAJOR reset (weights & contexts)
[DEBUG] handlePhaseChange -> MAJOR reset (weights & contexts)
[DEBUG] handlePhaseChange -> MAJOR reset (weights & contexts)
[DEBUG] handlePhaseChange -> MAJOR reset (weights & contexts)
[DEBUG] handlePhaseChange -> MAJOR reset (weights & contexts)
[DEBUG] handlePhaseChange -> MAJOR reset (weights & contexts)
[DEBUG] handlePhaseChange -> MAJOR reset (weights & contexts)
[DEBUG] handlePhaseChange -> MAJOR reset (weights & contexts)
[DEBUG] handlePhaseChange -> MAJOR reset (weights & contexts)
[DEBUG] handlePhaseChange -> MAJOR reset (weights & contexts)
[DEBUG] handlePhaseChange -> MAJOR reset (weights & contexts)
[DEBUG] handlePhaseChange -> MAJOR reset (weights & contexts)
[DEBUG] handlePhaseChange -> MAJOR reset (weights & contexts)
[DEBUG] handlePhaseChange -> MAJOR reset (weights & contexts)
[DEBUG] handlePhaseChange -> MAJOR reset (weights & contexts)
[DEBUG] handlePhaseChange -> MAJOR reset (weights & contexts)
[DEBUG] handlePhaseChange -> MAJOR reset (weights & contexts)
[DEBUG] handlePhaseChange -> MAJOR reset (weights & contexts)
[DEBUG] handlePhaseChange -> MAJOR reset (weights & contexts)
[DEBUG] handlePhaseChange -> MAJOR reset (weights & contexts)
[DEBUG] handlePhaseChange -> MAJOR reset (weights & contexts)
[DEBUG] handlePhaseChange -> MAJOR reset (weights & contexts)
[DEBUG] handlePhaseChange -> MAJOR reset (weights & contexts)
[DEBUG] handlePhaseChange -> MAJOR reset (weights & contexts)
[DEBUG] handlePhaseChange -> MAJOR reset (weights & contexts)
[DEBUG] handlePhaseChange -> MAJOR reset (weights & contexts)
[DEBUG] handlePhaseChange -> MAJOR reset (weights & contexts)
[DEBUG] handlePhaseChange -> MAJOR reset (weights & contexts)
[DEBUG] handlePhaseChange -> MAJOR reset (weights & contexts)
[DEBUG] handlePhaseChange -> MAJOR reset (weights & contexts)
[DEBUG] handlePhaseChange -> MAJOR reset (weights & contexts)
[DEBUG] handlePhaseChange -> MAJOR reset (weights & contexts)
[DEBUG] handlePhaseChange -> MAJOR reset (weights & contexts)
[DEBUG] handlePhaseChange -> MAJOR reset (weights & contexts)
[DEBUG] handlePhaseChange -> MAJOR reset (weights & contexts)
[DEBUG] handlePhaseChange -> MAJOR reset (weights & contexts)
[DEBUG] handlePhaseChange -> MAJOR reset (weights & contexts)
[DEBUG] handlePhaseChange -> MAJOR reset (weights & contexts)
[DEBUG] handlePhaseChange -> MAJOR reset (weights & contexts)
[DEBUG] handlePhaseChange -> MAJOR reset (weights & contexts)
[DEBUG] handlePhaseChange -> MAJOR reset (weights & contexts)
[DEBUG] handlePhaseChange -> MAJOR reset (weights & contexts)
[DEBUG] handlePhaseChange -> MAJOR reset (weights & contexts)
[DEBUG] handlePhaseChange -> MAJOR reset (weights & contexts)
[DEBUG] handlePhaseChange -> MAJOR reset (weights & contexts)
[DEBUG] handlePhaseChange -> MAJOR reset (weights & contexts)
[DEBUG] handlePhaseChange -> MAJOR reset (weights & contexts)
[DEBUG] handlePhaseChange -> MAJOR reset (weights & contexts)
[DEBUG] handlePhaseChange -> MAJOR reset (weights & contexts)
[DEBUG] handlePhaseChange -> MAJOR reset (weights & contexts)
[DEBUG] handlePhaseChange -> MAJOR reset (weights & contexts)
[DEBUG] handlePhaseChange -> MAJOR reset (weights & contexts)
[DEBUG] handlePhaseChange -> MAJOR reset (weights & contexts)
[DEBUG] handlePhaseChange -> MAJOR reset (weights & contexts)
[DEBUG] handlePhaseChange -> MAJOR reset (weights & contexts)
[DEBUG] handlePhaseChange -> MAJOR reset (weights & contexts)
[DEBUG] handlePhaseChange -> MAJOR reset (weights & contexts)
[DEBUG] handlePhaseChange -> MAJOR reset (weights & contexts)
[DEBUG] handlePhaseChange -> MAJOR reset (weights & contexts)
[DEBUG] handlePhaseChange -> MAJOR reset (weights & contexts)
[DEBUG] handlePhaseChange -> MAJOR reset (weights & contexts)
[DEBUG] handlePhaseChange -> MAJOR reset (weights & contexts)
[DEBUG] handlePhaseChange -> MAJOR reset (weights & contexts)
[DEBUG] handlePhaseChange -> MAJOR reset (weights & contexts)
[DEBUG] handlePhaseChange -> MAJOR reset (weights & contexts)
[DEBUG] handlePhaseChange -> MAJOR reset (weights & contexts)
[DEBUG] handlePhaseChange -> MAJOR reset (weights & contexts)
[DEBUG] handlePhaseChange -> MAJOR reset (weights & contexts)
[DEBUG] handlePhaseChange -> MAJOR reset (weights & contexts)
[DEBUG] handlePhaseChange -> MAJOR reset (weights & contexts)
[DEBUG] handlePhaseChange -> MAJOR reset (weights & contexts)
[DEBUG] handlePhaseChange -> MAJOR reset (weights & contexts)
[DEBUG] handlePhaseChange -> MAJOR reset (weights & contexts)
[DEBUG] handlePhaseChange -> MAJOR reset (weights & contexts)
[DEBUG] handlePhaseChange -> MAJOR reset (weights & contexts)
[DEBUG] handlePhaseChange -> MAJOR reset (weights & contexts)
[DEBUG] handlePhaseChange -> MAJOR reset (weights & contexts)
[DEBUG] handlePhaseChange -> MAJOR reset (weights & contexts)
[DEBUG] handlePhaseChange -> MAJOR reset (weights & contexts)
[DEBUG] handlePhaseChange -> MAJOR reset (weights & contexts)
[DEBUG] handlePhaseChange -> MAJOR reset (weights & contexts)
[DEBUG] handlePhaseChange -> MAJOR reset (weights & contexts)
[DEBUG] handlePhaseChange -> MAJOR reset (weights & contexts)
[DEBUG] handlePhaseChange -> MAJOR reset (weights & contexts)
[DEBUG] handlePhaseChange -> MAJOR reset (weights & contexts)
[DEBUG] handlePhaseChange -> MAJOR reset (weights & contexts)
[DEBUG] handlePhaseChange -> MAJOR reset (weights & contexts)
[DEBUG] handlePhaseChange -> MAJOR reset (weights & contexts)
[DEBUG] handlePhaseChange -> MAJOR reset (weights & contexts)
[DEBUG] handlePhaseChange -> MAJOR reset (weights & contexts)
[DEBUG] handlePhaseChange -> MAJOR reset (weights & contexts)
[DEBUG] handlePhaseChange -> MAJOR reset (weights & contexts)
[DEBUG] handlePhaseChange -> MAJOR reset (weights & contexts)
[DEBUG] handlePhaseChange -> MAJOR reset (weights & contexts)
[DEBUG] handlePhaseChange -> MAJOR reset (weights & contexts)
[DEBUG] handlePhaseChange -> MAJOR reset (weights & contexts)
[DEBUG] handlePhaseChange -> MAJOR reset (weights & contexts)
[DEBUG] handlePhaseChange -> MAJOR reset (weights & contexts)
[DEBUG] handlePhaseChange -> MAJOR reset (weights & contexts)
[DEBUG] handlePhaseChange -> MAJOR reset (weights & contexts)
[DEBUG] handlePhaseChange -> MAJOR reset (weights & contexts)
[DEBUG] handlePhaseChange -> MAJOR reset (weights & contexts)
[DEBUG] handlePhaseChange -> MAJOR reset (weights & contexts)
[DEBUG] handlePhaseChange -> MAJOR reset (weights & contexts)
[DEBUG] handlePhaseChange -> MAJOR reset (weights & contexts)
[DEBUG] handlePhaseChange -> MAJOR reset (weights & contexts)
[DEBUG] handlePhaseChange -> MAJOR reset (weights & contexts)
[DEBUG] handlePhaseChange -> MAJOR reset (weights & contexts)
[DEBUG] handlePhaseChange -> MAJOR reset (weights & contexts)
[DEBUG] handlePhaseChange -> MAJOR reset (weights & contexts)
[DEBUG] handlePhaseChange -> MAJOR reset (weights & contexts)
[DEBUG] handlePhaseChange -> MAJOR reset (weights & contexts)
[DEBUG] handlePhaseChange -> MAJOR reset (weights & contexts)
[DEBUG] handlePhaseChange -> MAJOR reset (weights & contexts)
[DEBUG] handlePhaseChange -> MAJOR reset (weights & contexts)
[DEBUG] handlePhaseChange -> MAJOR reset (weights & contexts)
[DEBUG] handlePhaseChange -> MAJOR reset (weights & contexts)
[DEBUG] handlePhaseChange -> MAJOR reset (weights & contexts)
[DEBUG] handlePhaseChange -> MAJOR reset (weights & contexts)
[DEBUG] handlePhaseChange -> MAJOR reset (weights & contexts)
[DEBUG] handlePhaseChange -> MAJOR reset (weights & contexts)
[DEBUG] handlePhaseChange -> MAJOR reset (weights & contexts)
[DEBUG] handlePhaseChange -> MAJOR reset (weights & contexts)
[DEBUG] handlePhaseChange -> MAJOR reset (weights & contexts)
[DEBUG] handlePhaseChange -> MAJOR reset (weights & contexts)
[DEBUG] handlePhaseChange -> MAJOR reset (weights & contexts)
[DEBUG] handlePhaseChange -> MAJOR reset (weights & contexts)
[DEBUG] handlePhaseChange -> MAJOR reset (weights & contexts)
[DEBUG] handlePhaseChange -> MAJOR reset (weights & contexts)
[DEBUG] handlePhaseChange -> MAJOR reset (weights & contexts)
[DEBUG] handlePhaseChange -> MAJOR reset (weights & contexts)
[DEBUG] handlePhaseChange -> MAJOR reset (weights & contexts)
[DEBUG] handlePhaseChange -> MAJOR reset (weights & contexts)
[DEBUG] handlePhaseChange -> MAJOR reset (weights & contexts)
[DEBUG] handlePhaseChange -> MAJOR reset (weights & contexts)
[DEBUG] handlePhaseChange -> MAJOR reset (weights & contexts)
[DEBUG] handlePhaseChange -> MAJOR reset (weights & contexts)
[DEBUG] handlePhaseChange -> MAJOR reset (weights & contexts)
[DEBUG] handlePhaseChange -> MAJOR reset (weights & contexts)
[DEBUG] handlePhaseChange -> MAJOR reset (weights & contexts)
[DEBUG] handlePhaseChange -> MAJOR reset (weights & contexts)
[DEBUG] handlePhaseChange -> MAJOR reset (weights & contexts)
[DEBUG] handlePhaseChange -> MAJOR reset (weights & contexts)
[DEBUG] handlePhaseChange -> MAJOR reset (weights & contexts)
[DEBUG] handlePhaseChange -> MAJOR reset (weights & contexts)
[DEBUG] handlePhaseChange -> MAJOR reset (weights & contexts)
[DEBUG] handlePhaseChange -> MAJOR reset (weights & contexts)
[DEBUG] handlePhaseChange -> MAJOR reset (weights & contexts)
[DEBUG] handlePhaseChange -> MAJOR reset (weights & contexts)
[DEBUG] handlePhaseChange -> MAJOR reset (weights & contexts)
[DEBUG] handlePhaseChange -> MAJOR reset (weights & contexts)
[DEBUG] handlePhaseChange -> MAJOR reset (weights & contexts)
[DEBUG] handlePhaseChange -> MAJOR reset (weights & contexts)
[DEBUG] handlePhaseChange -> MAJOR reset (weights & contexts)
[DEBUG] handlePhaseChange -> MAJOR reset (weights & contexts)
[DEBUG] handlePhaseChange -> MAJOR reset (weights & contexts)
[DEBUG] handlePhaseChange -> MAJOR reset (weights & contexts)
[DEBUG] handlePhaseChange -> MAJOR reset (weights & contexts)
[DEBUG] handlePhaseChange -> MAJOR reset (weights & contexts)
[DEBUG] handlePhaseChange -> MAJOR reset (weights & contexts)
[DEBUG] handlePhaseChange -> MAJOR reset (weights & contexts)
[DEBUG] handlePhaseChange -> MAJOR reset (weights & contexts)
[DEBUG] handlePhaseChange -> MAJOR reset (weights & contexts)
[DEBUG] handlePhaseChange -> MAJOR reset (weights & contexts)
[DEBUG] handlePhaseChange -> MAJOR reset (weights & contexts)
[DEBUG] handlePhaseChange -> MAJOR reset (weights & contexts)
[DEBUG] handlePhaseChange -> MAJOR reset (weights & contexts)
[DEBUG] handlePhaseChange -> MAJOR reset (weights & contexts)
[DEBUG] handlePhaseChange -> MAJOR reset (weights & contexts)
[DEBUG] handlePhaseChange -> MAJOR reset (weights & contexts)
[DEBUG] handlePhaseChange -> MAJOR reset (weights & contexts)
[DEBUG] handlePhaseChange -> MAJOR reset (weights & contexts)
[DEBUG] handlePhaseChange -> MAJOR reset (weights & contexts)
[DEBUG] handlePhaseChange -> MAJOR reset (weights & contexts)
[DEBUG] handlePhaseChange -> MAJOR reset (weights & contexts)
[DEBUG] handlePhaseChange -> MAJOR reset (weights & contexts)
[DEBUG] handlePhaseChange -> MAJOR reset (weights & contexts)
[DEBUG] handlePhaseChange -> MAJOR reset (weights & contexts)
[DEBUG] handlePhaseChange -> MAJOR reset (weights & contexts)
[DEBUG] handlePhaseChange -> MAJOR reset (weights & contexts)
[DEBUG] handlePhaseChange -> MAJOR reset (weights & contexts)
[DEBUG] handlePhaseChange -> MAJOR reset (weights & contexts)
[DEBUG] handlePhaseChange -> MAJOR reset (weights & contexts)
[DEBUG] handlePhaseChange -> MAJOR reset (weights & contexts)
[DEBUG] handlePhaseChange -> MAJOR reset (weights & contexts)
[DEBUG] handlePhaseChange -> MAJOR reset (weights & contexts)
[DEBUG] handlePhaseChange -> MAJOR reset (weights & contexts)
[DEBUG] handlePhaseChange -> MAJOR reset (weights & contexts)
[DEBUG] handlePhaseChange -> MAJOR reset (weights & contexts)
[DEBUG] handlePhaseChange -> MAJOR reset (weights & contexts)
[DEBUG] handlePhaseChange -> MAJOR reset (weights & contexts)
[DEBUG] handlePhaseChange -> MAJOR reset (weights & contexts)
[DEBUG] handlePhaseChange -> MAJOR reset (weights & contexts)
[DEBUG] handlePhaseChange -> MAJOR reset (weights & contexts)
[DEBUG] handlePhaseChange -> MAJOR reset (weights & contexts)
[DEBUG] handlePhaseChange -> MAJOR reset (weights & contexts)
[DEBUG] handlePhaseChange -> MAJOR reset (weights & contexts)
[DEBUG] handlePhaseChange -> MAJOR reset (weights & contexts)
[DEBUG] handlePhaseChange -> MAJOR reset (weights & contexts)
[DEBUG] handlePhaseChange -> MAJOR reset (weights & contexts)
[DEBUG] handlePhaseChange -> MAJOR reset (weights & contexts)
[DEBUG] handlePhaseChange -> MAJOR reset (weights & contexts)
[DEBUG] handlePhaseChange -> MAJOR reset (weights & contexts)
[DEBUG] handlePhaseChange -> MAJOR reset (weights & contexts)
[DEBUG] handlePhaseChange -> MAJOR reset (weights & contexts)
[DEBUG] handlePhaseChange -> MAJOR reset (weights & contexts)
[DEBUG] handlePhaseChange -> MAJOR reset (weights & contexts)
[DEBUG] handlePhaseChange -> MAJOR reset (weights & contexts)
[DEBUG] handlePhaseChange -> MAJOR reset (weights & contexts)
[DEBUG] handlePhaseChange -> MAJOR reset (weights & contexts)
[DEBUG] handlePhaseChange -> MAJOR reset (weights & contexts)
[DEBUG] handlePhaseChange -> MAJOR reset (weights & contexts)
[DEBUG] handlePhaseChange -> MAJOR reset (weights & contexts)
[DEBUG] handlePhaseChange -> MAJOR reset (weights & contexts)
[DEBUG] handlePhaseChange -> MAJOR reset (weights & contexts)
[DEBUG] handlePhaseChange -> MAJOR reset (weights & contexts)
[DEBUG] handlePhaseChange -> MAJOR reset (weights & contexts)
[DEBUG] handlePhaseChange -> MAJOR reset (weights & contexts)
[DEBUG] handlePhaseChange -> MAJOR reset (weights & contexts)
[DEBUG] handlePhaseChange -> MAJOR reset (weights & contexts)
[DEBUG] handlePhaseChange -> MAJOR reset (weights & contexts)
[DEBUG] handlePhaseChange -> MAJOR reset (weights & contexts)
[DEBUG] handlePhaseChange -> MAJOR reset (weights & contexts)
[DEBUG] handlePhaseChange -> MAJOR reset (weights & contexts)
[DEBUG] handlePhaseChange -> MAJOR reset (weights & contexts)
[DEBUG] handlePhaseChange -> MAJOR reset (weights & contexts)
[DEBUG] handlePhaseChange -> MAJOR reset (weights & contexts)
[DEBUG] handlePhaseChange -> MAJOR reset (weights & contexts)
[DEBUG] handlePhaseChange -> MAJOR reset (weights & contexts)
[DEBUG] handlePhaseChange -> MAJOR reset (weights & contexts)
[DEBUG] handlePhaseChange -> MAJOR reset (weights & contexts)
[DEBUG] handlePhaseChange -> MAJOR reset (weights & contexts)
[DEBUG] handlePhaseChange -> MAJOR reset (weights & contexts)
[DEBUG] handlePhaseChange -> MAJOR reset (weights & contexts)
[DEBUG] handlePhaseChange -> MAJOR reset (weights & contexts)
[DEBUG] handlePhaseChange -> MAJOR reset (weights & contexts)
[DEBUG] handlePhaseChange -> MAJOR reset (weights & contexts)
[DEBUG] handlePhaseChange -> MAJOR reset (weights & contexts)
[DEBUG] handlePhaseChange -> MAJOR reset (weights & contexts)
[DEBUG] handlePhaseChange -> MAJOR reset (weights & contexts)
[DEBUG] handlePhaseChange -> MAJOR reset (weights & contexts)
[DEBUG] handlePhaseChange -> MAJOR reset (weights & contexts)
[DEBUG] handlePhaseChange -> MAJOR reset (weights & contexts)
[DEBUG] handlePhaseChange -> MAJOR reset (weights & contexts)
[DEBUG] handlePhaseChange -> MAJOR reset (weights & contexts)
[DEBUG] handlePhaseChange -> MAJOR reset (weights & contexts)
[DEBUG] handlePhaseChange -> MAJOR reset (weights & contexts)
[DEBUG] handlePhaseChange -> MAJOR reset (weights & contexts)
[DEBUG] handlePhaseChange -> MAJOR reset (weights & contexts)
[DEBUG] handlePhaseChange -> MAJOR reset (weights & contexts)
[DEBUG] handlePhaseChange -> MAJOR reset (weights & contexts)
[DEBUG] handlePhaseChange -> MAJOR reset (weights & contexts)
[DEBUG] handlePhaseChange -> MAJOR reset (weights & contexts)
[DEBUG] handlePhaseChange -> MAJOR reset (weights & contexts)
[DEBUG] handlePhaseChange -> MAJOR reset (weights & contexts)
[DEBUG] handlePhaseChange -> MAJOR reset (weights & contexts)
[DEBUG] handlePhaseChange -> MAJOR reset (weights & contexts)
[DEBUG] handlePhaseChange -> MAJOR reset (weights & contexts)
[DEBUG] handlePhaseChange -> MAJOR reset (weights & contexts)
[DEBUG] handlePhaseChange -> MAJOR reset (weights & contexts)
[DEBUG] handlePhaseChange -> MAJOR reset (weights & contexts)
[DEBUG] handlePhaseChange -> MAJOR reset (weights & contexts)
[DEBUG] handlePhaseChange -> MAJOR reset (weights & contexts)
[DEBUG] handlePhaseChange -> MAJOR reset (weights & contexts)
[DEBUG] handlePhaseChange -> MAJOR reset (weights & contexts)
[DEBUG] handlePhaseChange -> MAJOR reset (weights & contexts)
[DEBUG] handlePhaseChange -> MAJOR reset (weights & contexts)
[DEBUG] handlePhaseChange -> MAJOR reset (weights & contexts)
[DEBUG] handlePhaseChange -> MAJOR reset (weights & contexts)
[DEBUG] handlePhaseChange -> MAJOR reset (weights & contexts)
[DEBUG] handlePhaseChange -> MAJOR reset (weights & contexts)
[DEBUG] handlePhaseChange -> MAJOR reset (weights & contexts)
[DEBUG] handlePhaseChange -> MAJOR reset (weights & contexts)
[DEBUG] handlePhaseChange -> MAJOR reset (weights & contexts)
[DEBUG] handlePhaseChange -> MAJOR reset (weights & contexts)
[DEBUG] handlePhaseChange -> MAJOR reset (weights & contexts)
[DEBUG] handlePhaseChange -> MAJOR reset (weights & contexts)
[DEBUG] handlePhaseChange -> MAJOR reset (weights & contexts)
[DEBUG] handlePhaseChange -> MAJOR reset (weights & contexts)
[DEBUG] handlePhaseChange -> MAJOR reset (weights & contexts)
[DEBUG] handlePhaseChange -> MAJOR reset (weights & contexts)
[DEBUG] handlePhaseChange -> MAJOR reset (weights & contexts)
[DEBUG] handlePhaseChange -> MAJOR reset (weights & contexts)
[DEBUG] handlePhaseChange -> MAJOR reset (weights & contexts)
[DEBUG] handlePhaseChange -> MAJOR reset (weights & contexts)
[DEBUG] handlePhaseChange -> MAJOR reset (weights & contexts)
[DEBUG] handlePhaseChange -> MAJOR reset (weights & contexts)
[DEBUG] handlePhaseChange -> MAJOR reset (weights & contexts)
[DEBUG] handlePhaseChange -> MAJOR reset (weights & contexts)
[DEBUG] handlePhaseChange -> MAJOR reset (weights & contexts)
[DEBUG] handlePhaseChange -> MAJOR reset (weights & contexts)
[DEBUG] handlePhaseChange -> MAJOR reset (weights & contexts)
[DEBUG] handlePhaseChange -> MAJOR reset (weights & contexts)
[DEBUG] handlePhaseChange -> MAJOR reset (weights & contexts)
[DEBUG] handlePhaseChange -> MAJOR reset (weights & contexts)
[DEBUG] handlePhaseChange -> MAJOR reset (weights & contexts)
[DEBUG] handlePhaseChange -> MAJOR reset (weights & contexts)
[DEBUG] handlePhaseChange -> MAJOR reset (weights & contexts)
[DEBUG] handlePhaseChange -> MAJOR reset (weights & contexts)
[DEBUG] handlePhaseChange -> MAJOR reset (weights & contexts)
[DEBUG] handlePhaseChange -> MAJOR reset (weights & contexts)
[DEBUG] handlePhaseChange -> MAJOR reset (weights & contexts)
[DEBUG] handlePhaseChange -> MAJOR reset (weights & contexts)
[DEBUG] handlePhaseChange -> MAJOR reset (weights & contexts)
[DEBUG] handlePhaseChange -> MAJOR reset (weights & contexts)
[DEBUG] handlePhaseChange -> MAJOR reset (weights & contexts)
[DEBUG] handlePhaseChange -> MAJOR reset (weights & contexts)
[DEBUG] handlePhaseChange -> MAJOR reset (weights & contexts)
[DEBUG] handlePhaseChange -> MAJOR reset (weights & contexts)
[DEBUG] handlePhaseChange -> MAJOR reset (weights & contexts)
[DEBUG] handlePhaseChange -> MAJOR reset (weights & contexts)
[DEBUG] handlePhaseChange -> MAJOR reset (weights & contexts)
[DEBUG] handlePhaseChange -> MAJOR reset (weights & contexts)
[DEBUG] handlePhaseChange -> MAJOR reset (weights & contexts)
[DEBUG] handlePhaseChange -> MAJOR reset (weights & contexts)
[DEBUG] handlePhaseChange -> MAJOR reset (weights & contexts)
[DEBUG] handlePhaseChange -> MAJOR reset (weights & contexts)
[DEBUG] handlePhaseChange -> MAJOR reset (weights & contexts)
[DEBUG] handlePhaseChange -> MAJOR reset (weights & contexts)
[DEBUG] handlePhaseChange -> MAJOR reset (weights & contexts)
[DEBUG] handlePhaseChange -> MAJOR reset (weights & contexts)
[DEBUG] handlePhaseChange -> MAJOR reset (weights & contexts)
[DEBUG] handlePhaseChange -> MAJOR reset (weights & contexts)
[DEBUG] handlePhaseChange -> MAJOR reset (weights & contexts)
[DEBUG] handlePhaseChange -> MAJOR reset (weights & contexts)
[DEBUG] handlePhaseChange -> MAJOR reset (weights & contexts)
[DEBUG] handlePhaseChange -> MAJOR reset (weights & contexts)
[DEBUG] handlePhaseChange -> MAJOR reset (weights & contexts)
[DEBUG] handlePhaseChange -> MAJOR reset (weights & contexts)
[DEBUG] handlePhaseChange -> MAJOR reset (weights & contexts)
[DEBUG] handlePhaseChange -> MAJOR reset (weights & contexts)
[DEBUG] handlePhaseChange -> MAJOR reset (weights & contexts)
[DEBUG] handlePhaseChange -> MAJOR reset (weights & contexts)
[DEBUG] handlePhaseChange -> MAJOR reset (weights & contexts)
[DEBUG] handlePhaseChange -> MAJOR reset (weights & contexts)
[DEBUG] handlePhaseChange -> MAJOR reset (weights & contexts)
[DEBUG] handlePhaseChange -> MAJOR reset (weights & contexts)
[DEBUG] handlePhaseChange -> MAJOR reset (weights & contexts)
[DEBUG] handlePhaseChange -> MAJOR reset (weights & contexts)
[DEBUG] handlePhaseChange -> MAJOR reset (weights & contexts)
[DEBUG] handlePhaseChange -> MAJOR reset (weights & contexts)
[DEBUG] handlePhaseChange -> MAJOR reset (weights & contexts)
[DEBUG] handlePhaseChange -> MAJOR reset (weights & contexts)
[DEBUG] handlePhaseChange -> MAJOR reset (weights & contexts)
[DEBUG] handlePhaseChange -> MAJOR reset (weights & contexts)
[DEBUG] handlePhaseChange -> MAJOR reset (weights & contexts)
[DEBUG] handlePhaseChange -> MAJOR reset (weights & contexts)
[DEBUG] handlePhaseChange -> MAJOR reset (weights & contexts)
[DEBUG] handlePhaseChange -> MAJOR reset (weights & contexts)
[DEBUG] handlePhaseChange -> MAJOR reset (weights & contexts)
[DEBUG] handlePhaseChange -> MAJOR reset (weights & contexts)
[DEBUG] handlePhaseChange -> MAJOR reset (weights & contexts)
[DEBUG] handlePhaseChange -> MAJOR reset (weights & contexts)
[DEBUG] handlePhaseChange -> MAJOR reset (weights & contexts)
[DEBUG] handlePhaseChange -> MAJOR reset (weights & contexts)
[DEBUG] handlePhaseChange -> MAJOR reset (weights & contexts)
[DEBUG] handlePhaseChange -> MAJOR reset (weights & contexts)
[DEBUG] handlePhaseChange -> MAJOR reset (weights & contexts)
[DEBUG] handlePhaseChange -> MAJOR reset (weights & contexts)
[DEBUG] handlePhaseChange -> MAJOR reset (weights & contexts)
[DEBUG] handlePhaseChange -> MAJOR reset (weights & contexts)
[DEBUG] handlePhaseChange -> MAJOR reset (weights & contexts)
[DEBUG] handlePhaseChange -> MAJOR reset (weights & contexts)
[DEBUG] handlePhaseChange -> MAJOR reset (weights & contexts)
[DEBUG] handlePhaseChange -> MAJOR reset (weights & contexts)
[DEBUG] handlePhaseChange -> MAJOR reset (weights & contexts)
[DEBUG] handlePhaseChange -> MAJOR reset (weights & contexts)
[DEBUG] handlePhaseChange -> MAJOR reset (weights & contexts)
[DEBUG] handlePhaseChange -> MAJOR reset (weights & contexts)
[DEBUG] handlePhaseChange -> MAJOR reset (weights & contexts)
[DEBUG] handlePhaseChange -> MAJOR reset (weights & contexts)
[DEBUG] handlePhaseChange -> MAJOR reset (weights & contexts)
[DEBUG] handlePhaseChange -> MAJOR reset (weights & contexts)
[DEBUG] handlePhaseChange -> MAJOR reset (weights & contexts)
[DEBUG] handlePhaseChange -> MAJOR reset (weights & contexts)
[DEBUG] handlePhaseChange -> MAJOR reset (weights & contexts)
[DEBUG] handlePhaseChange -> MAJOR reset (weights & contexts)
[DEBUG] handlePhaseChange -> MAJOR reset (weights & contexts)
[DEBUG] handlePhaseChange -> MAJOR reset (weights & contexts)
[DEBUG] handlePhaseChange -> MAJOR reset (weights & contexts)
[DEBUG] handlePhaseChange -> MAJOR reset (weights & contexts)
[DEBUG] handlePhaseChange -> MAJOR reset (weights & contexts)
[DEBUG] handlePhaseChange -> MAJOR reset (weights & contexts)
[DEBUG] handlePhaseChange -> MAJOR reset (weights & contexts)
[DEBUG] handlePhaseChange -> MAJOR reset (weights & contexts)
[DEBUG] handlePhaseChange -> MAJOR reset (weights & contexts)
[DEBUG] handlePhaseChange -> MAJOR reset (weights & contexts)
[DEBUG] handlePhaseChange -> MAJOR reset (weights & contexts)
[DEBUG] handlePhaseChange -> MAJOR reset (weights & contexts)
[DEBUG] handlePhaseChange -> MAJOR reset (weights & contexts)
[DEBUG] handlePhaseChange -> MAJOR reset (weights & contexts)
[DEBUG] handlePhaseChange -> MAJOR reset (weights & contexts)
[DEBUG] handlePhaseChange -> MAJOR reset (weights & contexts)
[DEBUG] handlePhaseChange -> MAJOR reset (weights & contexts)
[DEBUG] handlePhaseChange -> MAJOR reset (weights & contexts)
[DEBUG] handlePhaseChange -> MAJOR reset (weights & contexts)
[DEBUG] handlePhaseChange -> MAJOR reset (weights & contexts)
[DEBUG] handlePhaseChange -> MAJOR reset (weights & contexts)
[DEBUG] handlePhaseChange -> MAJOR reset (weights & contexts)
[DEBUG] handlePhaseChange -> MAJOR reset (weights & contexts)
[DEBUG] handlePhaseChange -> MAJOR reset (weights & contexts)
[DEBUG] handlePhaseChange -> MAJOR reset (weights & contexts)
[DEBUG] handlePhaseChange -> MAJOR reset (weights & contexts)
[DEBUG] handlePhaseChange -> MAJOR reset (weights & contexts)
[DEBUG] handlePhaseChange -> MAJOR reset (weights & contexts)
[DEBUG] handlePhaseChange -> MAJOR reset (weights & contexts)
[DEBUG] handlePhaseChange -> MAJOR reset (weights & contexts)
[DEBUG] handlePhaseChange -> MAJOR reset (weights & contexts)
[DEBUG] handlePhaseChange -> MAJOR reset (weights & contexts)
[DEBUG] handlePhaseChange -> MAJOR reset (weights & contexts)
[DEBUG] handlePhaseChange -> MAJOR reset (weights & contexts)
[DEBUG] handlePhaseChange -> MAJOR reset (weights & contexts)
[DEBUG] handlePhaseChange -> MAJOR reset (weights & contexts)
[DEBUG] handlePhaseChange -> MAJOR reset (weights & contexts)
[DEBUG] handlePhaseChange -> MAJOR reset (weights & contexts)
[DEBUG] handlePhaseChange -> MAJOR reset (weights & contexts)
[DEBUG] handlePhaseChange -> MAJOR reset (weights & contexts)
[DEBUG] handlePhaseChange -> MAJOR reset (weights & contexts)
[DEBUG] handlePhaseChange -> MAJOR reset (weights & contexts)
[DEBUG] handlePhaseChange -> MAJOR reset (weights & contexts)
[DEBUG] handlePhaseChange -> MAJOR reset (weights & contexts)
[DEBUG] handlePhaseChange -> MAJOR reset (weights & contexts)
[DEBUG] handlePhaseChange -> MAJOR reset (weights & contexts)
[DEBUG] handlePhaseChange -> MAJOR reset (weights & contexts)
[DEBUG] handlePhaseChange -> MAJOR reset (weights & contexts)
[DEBUG] handlePhaseChange -> MAJOR reset (weights & contexts)
[DEBUG] handlePhaseChange -> MAJOR reset (weights & contexts)
[DEBUG] handlePhaseChange -> MAJOR reset (weights & contexts)
[DEBUG] handlePhaseChange -> MAJOR reset (weights & contexts)
[DEBUG] handlePhaseChange -> MAJOR reset (weights & contexts)
[DEBUG] handlePhaseChange -> MAJOR reset (weights & contexts)
[DEBUG] handlePhaseChange -> MAJOR reset (weights & contexts)
[DEBUG] handlePhaseChange -> MAJOR reset (weights & contexts)
[DEBUG] handlePhaseChange -> MAJOR reset (weights & contexts)
[DEBUG] handlePhaseChange -> MAJOR reset (weights & contexts)
[DEBUG] handlePhaseChange -> MAJOR reset (weights & contexts)
[DEBUG] handlePhaseChange -> MAJOR reset (weights & contexts)
[DEBUG] handlePhaseChange -> MAJOR reset (weights & contexts)
[DEBUG] handlePhaseChange -> MAJOR reset (weights & contexts)
[DEBUG] handlePhaseChange -> MAJOR reset (weights & contexts)
[DEBUG] handlePhaseChange -> MAJOR reset (weights & contexts)
[DEBUG] handlePhaseChange -> MAJOR reset (weights & contexts)
[DEBUG] handlePhaseChange -> MAJOR reset (weights & contexts)
[DEBUG] handlePhaseChange -> MAJOR reset (weights & contexts)
[DEBUG] handlePhaseChange -> MAJOR reset (weights & contexts)
[DEBUG] handlePhaseChange -> MAJOR reset (weights & contexts)
[DEBUG] handlePhaseChange -> MAJOR reset (weights & contexts)
[DEBUG] handlePhaseChange -> MAJOR reset (weights & contexts)
[DEBUG] handlePhaseChange -> MAJOR reset (weights & contexts)
[DEBUG] handlePhaseChange -> MAJOR reset (weights & contexts)
[DEBUG] handlePhaseChange -> MAJOR reset (weights & contexts)
[DEBUG] handlePhaseChange -> MAJOR reset (weights & contexts)
[DEBUG] handlePhaseChange -> MAJOR reset (weights & contexts)
[DEBUG] handlePhaseChange -> MAJOR reset (weights & contexts)
[DEBUG] handlePhaseChange -> MAJOR reset (weights & contexts)
[DEBUG] handlePhaseChange -> MAJOR reset (weights & contexts)
[DEBUG] handlePhaseChange -> MAJOR reset (weights & contexts)
[DEBUG] handlePhaseChange -> MAJOR reset (weights & contexts)
[DEBUG] handlePhaseChange -> MAJOR reset (weights & contexts)
[DEBUG] handlePhaseChange -> MAJOR reset (weights & contexts)
[DEBUG] handlePhaseChange -> MAJOR reset (weights & contexts)
[DEBUG] handlePhaseChange -> MAJOR reset (weights & contexts)
[DEBUG] handlePhaseChange -> MAJOR reset (weights & contexts)
[DEBUG] handlePhaseChange -> MAJOR reset (weights & contexts)
[DEBUG] handlePhaseChange -> MAJOR reset (weights & contexts)
[DEBUG] handlePhaseChange -> MAJOR reset (weights & contexts)
[DEBUG] handlePhaseChange -> MAJOR reset (weights & contexts)
[DEBUG] handlePhaseChange -> MAJOR reset (weights & contexts)
[DEBUG] handlePhaseChange -> MAJOR reset (weights & contexts)
[DEBUG] handlePhaseChange -> MAJOR reset (weights & contexts)
[DEBUG] handlePhaseChange -> MAJOR reset (weights & contexts)
[DEBUG] handlePhaseChange -> MAJOR reset (weights & contexts)
[DEBUG] handlePhaseChange -> MAJOR reset (weights & contexts)
[DEBUG] handlePhaseChange -> MAJOR reset (weights & contexts)
[DEBUG] handlePhaseChange -> MAJOR reset (weights & contexts)
[DEBUG] handlePhaseChange -> MAJOR reset (weights & contexts)
[DEBUG] handlePhaseChange -> MAJOR reset (weights & contexts)
[DEBUG] handlePhaseChange -> MAJOR reset (weights & contexts)
[DEBUG] handlePhaseChange -> MAJOR reset (weights & contexts)
[DEBUG] handlePhaseChange -> MAJOR reset (weights & contexts)
[DEBUG] handlePhaseChange -> MAJOR reset (weights & contexts)
[DEBUG] handlePhaseChange -> MAJOR reset (weights & contexts)
[DEBUG] handlePhaseChange -> MAJOR reset (weights & contexts)
[DEBUG] handlePhaseChange -> MAJOR reset (weights & contexts)
[DEBUG] handlePhaseChange -> MAJOR reset (weights & contexts)
[DEBUG] handlePhaseChange -> MAJOR reset (weights & contexts)
[DEBUG] handlePhaseChange -> MAJOR reset (weights & contexts)
[DEBUG] handlePhaseChange -> MAJOR reset (weights & contexts)
[DEBUG] handlePhaseChange -> MAJOR reset (weights & contexts)
[DEBUG] handlePhaseChange -> MAJOR reset (weights & contexts)
[DEBUG] handlePhaseChange -> MAJOR reset (weights & contexts)
[DEBUG] handlePhaseChange -> MAJOR reset (weights & contexts)
[DEBUG] handlePhaseChange -> MAJOR reset (weights & contexts)
[DEBUG] handlePhaseChange -> MAJOR reset (weights & contexts)
[DEBUG] handlePhaseChange -> MAJOR reset (weights & contexts)
[DEBUG] handlePhaseChange -> MAJOR reset (weights & contexts)
[DEBUG] handlePhaseChange -> MAJOR reset (weights & contexts)
[DEBUG] handlePhaseChange -> MAJOR reset (weights & contexts)
[DEBUG] handlePhaseChange -> MAJOR reset (weights & contexts)
[DEBUG] handlePhaseChange -> MAJOR reset (weights & contexts)
[DEBUG] handlePhaseChange -> MAJOR reset (weights & contexts)
[DEBUG] handlePhaseChange -> MAJOR reset (weights & contexts)
[DEBUG] handlePhaseChange -> MAJOR reset (weights & contexts)
[DEBUG] handlePhaseChange -> MAJOR reset (weights & contexts)
[DEBUG] handlePhaseChange -> MAJOR reset (weights & contexts)
[DEBUG] handlePhaseChange -> MAJOR reset (weights & contexts)
[DEBUG] handlePhaseChange -> MAJOR reset (weights & contexts)
[DEBUG] handlePhaseChange -> MAJOR reset (weights & contexts)
[DEBUG] handlePhaseChange -> MAJOR reset (weights & contexts)
[DEBUG] handlePhaseChange -> MAJOR reset (weights & contexts)
[DEBUG] handlePhaseChange -> MAJOR reset (weights & contexts)
[DEBUG] handlePhaseChange -> MAJOR reset (weights & contexts)
[DEBUG] handlePhaseChange -> MAJOR reset (weights & contexts)
[DEBUG] handlePhaseChange -> MAJOR reset (weights & contexts)
[DEBUG] handlePhaseChange -> MAJOR reset (weights & contexts)
[DEBUG] handlePhaseChange -> MAJOR reset (weights & contexts)
[DEBUG] handlePhaseChange -> MAJOR reset (weights & contexts)
[DEBUG] handlePhaseChange -> MAJOR reset (weights & contexts)
[DEBUG] handlePhaseChange -> MAJOR reset (weights & contexts)
[DEBUG] handlePhaseChange -> MAJOR reset (weights & contexts)
[DEBUG] handlePhaseChange -> MAJOR reset (weights & contexts)
[DEBUG] handlePhaseChange -> MAJOR reset (weights & contexts)
[DEBUG] handlePhaseChange -> MAJOR reset (weights & contexts)
[DEBUG] handlePhaseChange -> MAJOR reset (weights & contexts)
[DEBUG] handlePhaseChange -> MAJOR reset (weights & contexts)
[DEBUG] handlePhaseChange -> MAJOR reset (weights & contexts)
[DEBUG] handlePhaseChange -> MAJOR reset (weights & contexts)
[DEBUG] handlePhaseChange -> MAJOR reset (weights & contexts)
[DEBUG] handlePhaseChange -> MAJOR reset (weights & contexts)
[DEBUG] handlePhaseChange -> MAJOR reset (weights & contexts)
[DEBUG] handlePhaseChange -> MAJOR reset (weights & contexts)
[DEBUG] handlePhaseChange -> MAJOR reset (weights & contexts)
[DEBUG] handlePhaseChange -> MAJOR reset (weights & contexts)
[DEBUG] handlePhaseChange -> MAJOR reset (weights & contexts)
[DEBUG] handlePhaseChange -> MAJOR reset (weights & contexts)
[DEBUG] handlePhaseChange -> MAJOR reset (weights & contexts)
[DEBUG] handlePhaseChange -> MAJOR reset (weights & contexts)
[DEBUG] handlePhaseChange -> MAJOR reset (weights & contexts)
[DEBUG] handlePhaseChange -> MAJOR reset (weights & contexts)
[DEBUG] handlePhaseChange -> MAJOR reset (weights & contexts)
[DEBUG] handlePhaseChange -> MAJOR reset (weights & contexts)
[DEBUG] handlePhaseChange -> MAJOR reset (weights & contexts)
[DEBUG] handlePhaseChange -> MAJOR reset (weights & contexts)
[DEBUG] handlePhaseChange -> MAJOR reset (weights & contexts)
[DEBUG] handlePhaseChange -> MAJOR reset (weights & contexts)
[DEBUG] handlePhaseChange -> MAJOR reset (weights & contexts)
[DEBUG] handlePhaseChange -> MAJOR reset (weights & contexts)
[DEBUG] handlePhaseChange -> MAJOR reset (weights & contexts)
[DEBUG] handlePhaseChange -> MAJOR reset (weights & contexts)
[DEBUG] handlePhaseChange -> MAJOR reset (weights & contexts)
[DEBUG] handlePhaseChange -> MAJOR reset (weights & contexts)
[DEBUG] handlePhaseChange -> MAJOR reset (weights & contexts)
[DEBUG] handlePhaseChange -> MAJOR reset (weights & contexts)
[DEBUG] handlePhaseChange -> MAJOR reset (weights & contexts)
[DEBUG] handlePhaseChange -> MAJOR reset (weights & contexts)
[DEBUG] handlePhaseChange -> MAJOR reset (weights & contexts)
[DEBUG] handlePhaseChange -> MAJOR reset (weights & contexts)
[DEBUG] handlePhaseChange -> MAJOR reset (weights & contexts)
[DEBUG] handlePhaseChange -> MAJOR reset (weights & contexts)
[DEBUG] handlePhaseChange -> MAJOR reset (weights & contexts)
[DEBUG] handlePhaseChange -> MAJOR reset (weights & contexts)
[DEBUG] handlePhaseChange -> MAJOR reset (weights & contexts)
[DEBUG] handlePhaseChange -> MAJOR reset (weights & contexts)
[DEBUG] handlePhaseChange -> MAJOR reset (weights & contexts)
[DEBUG] handlePhaseChange -> MAJOR reset (weights & contexts)
[DEBUG] handlePhaseChange -> MAJOR reset (weights & contexts)
[DEBUG] handlePhaseChange -> MAJOR reset (weights & contexts)
[DEBUG] handlePhaseChange -> MAJOR reset (weights & contexts)
[DEBUG] handlePhaseChange -> MAJOR reset (weights & contexts)
[DEBUG] handlePhaseChange -> MAJOR reset (weights & contexts)
[DEBUG] handlePhaseChange -> MAJOR reset (weights & contexts)
[DEBUG] handlePhaseChange -> MAJOR reset (weights & contexts)
[DEBUG] handlePhaseChange -> MAJOR reset (weights & contexts)
[DEBUG] handlePhaseChange -> MAJOR reset (weights & contexts)
[DEBUG] handlePhaseChange -> MAJOR reset (weights & contexts)
[DEBUG] handlePhaseChange -> MAJOR reset (weights & contexts)
[DEBUG] handlePhaseChange -> MAJOR reset (weights & contexts)
[DEBUG] handlePhaseChange -> MAJOR reset (weights & contexts)
[DEBUG] handlePhaseChange -> MAJOR reset (weights & contexts)
[DEBUG] handlePhaseChange -> MAJOR reset (weights & contexts)
[DEBUG] handlePhaseChange -> MAJOR reset (weights & contexts)
[DEBUG] handlePhaseChange -> MAJOR reset (weights & contexts)
[DEBUG] handlePhaseChange -> MAJOR reset (weights & contexts)
[DEBUG] handlePhaseChange -> MAJOR reset (weights & contexts)
[DEBUG] handlePhaseChange -> MAJOR reset (weights & contexts)
[DEBUG] handlePhaseChange -> MAJOR reset (weights & contexts)
[DEBUG] handlePhaseChange -> MAJOR reset (weights & contexts)
[DEBUG] handlePhaseChange -> MAJOR reset (weights & contexts)
[DEBUG] handlePhaseChange -> MAJOR reset (weights & contexts)
[DEBUG] handlePhaseChange -> MAJOR reset (weights & contexts)
[DEBUG] handlePhaseChange -> MAJOR reset (weights & contexts)
[DEBUG] handlePhaseChange -> MAJOR reset (weights & contexts)
[DEBUG] handlePhaseChange -> MAJOR reset (weights & contexts)
[DEBUG] handlePhaseChange -> MAJOR reset (weights & contexts)
[DEBUG] handlePhaseChange -> MAJOR reset (weights & contexts)
[DEBUG] handlePhaseChange -> MAJOR reset (weights & contexts)
[DEBUG] handlePhaseChange -> MAJOR reset (weights & contexts)
[DEBUG] handlePhaseChange -> MAJOR reset (weights & contexts)
[DEBUG] handlePhaseChange -> MAJOR reset (weights & contexts)
[DEBUG] handlePhaseChange -> MAJOR reset (weights & contexts)
[DEBUG] handlePhaseChange -> MAJOR reset (weights & contexts)
[DEBUG] handlePhaseChange -> MAJOR reset (weights & contexts)
[DEBUG] handlePhaseChange -> MAJOR reset (weights & contexts)
[DEBUG] handlePhaseChange -> MAJOR reset (weights & contexts)
[DEBUG] handlePhaseChange -> MAJOR reset (weights & contexts)
[DEBUG] handlePhaseChange -> MAJOR reset (weights & contexts)
[DEBUG] handlePhaseChange -> MAJOR reset (weights & contexts)
[DEBUG] handlePhaseChange -> MAJOR reset (weights & contexts)
[DEBUG] handlePhaseChange -> MAJOR reset (weights & contexts)
[DEBUG] handlePhaseChange -> MAJOR reset (weights & contexts)
[DEBUG] handlePhaseChange -> MAJOR reset (weights & contexts)
[DEBUG] handlePhaseChange -> MAJOR reset (weights & contexts)
[DEBUG] handlePhaseChange -> MAJOR reset (weights & contexts)
[DEBUG] handlePhaseChange -> MAJOR reset (weights & contexts)
[DEBUG] handlePhaseChange -> MAJOR reset (weights & contexts)
[DEBUG] handlePhaseChange -> MAJOR reset (weights & contexts)
[DEBUG] handlePhaseChange -> MAJOR reset (weights & contexts)
[DEBUG] handlePhaseChange -> MAJOR reset (weights & contexts)
[DEBUG] handlePhaseChange -> MAJOR reset (weights & contexts)
[DEBUG] handlePhaseChange -> MAJOR reset (weights & contexts)
[DEBUG] handlePhaseChange -> MAJOR reset (weights & contexts)
[DEBUG] handlePhaseChange -> MAJOR reset (weights & contexts)
[DEBUG] handlePhaseChange -> MAJOR reset (weights & contexts)
[DEBUG] handlePhaseChange -> MAJOR reset (weights & contexts)
[DEBUG] handlePhaseChange -> MAJOR reset (weights & contexts)
[DEBUG] handlePhaseChange -> MAJOR reset (weights & contexts)
[DEBUG] handlePhaseChange -> MAJOR reset (weights & contexts)
[DEBUG] handlePhaseChange -> MAJOR reset (weights & contexts)
[DEBUG] handlePhaseChange -> MAJOR reset (weights & contexts)
[DEBUG] handlePhaseChange -> MAJOR reset (weights & contexts)
[DEBUG] handlePhaseChange -> MAJOR reset (weights & contexts)
[DEBUG] handlePhaseChange -> MAJOR reset (weights & contexts)
[DEBUG] handlePhaseChange -> MAJOR reset (weights & contexts)
[DEBUG] handlePhaseChange -> MAJOR reset (weights & contexts)
[DEBUG] handlePhaseChange -> MAJOR reset (weights & contexts)
[DEBUG] handlePhaseChange -> MAJOR reset (weights & contexts)
[DEBUG] handlePhaseChange -> MAJOR reset (weights & contexts)
[DEBUG] handlePhaseChange -> MAJOR reset (weights & contexts)
[DEBUG] handlePhaseChange -> MAJOR reset (weights & contexts)
[DEBUG] handlePhaseChange -> MAJOR reset (weights & contexts)
[DEBUG] handlePhaseChange -> MAJOR reset (weights & contexts)
[DEBUG] handlePhaseChange -> MAJOR reset (weights & contexts)
[DEBUG] handlePhaseChange -> MAJOR reset (weights & contexts)
[DEBUG] handlePhaseChange -> MAJOR reset (weights & contexts)
[DEBUG] handlePhaseChange -> MAJOR reset (weights & contexts)
[DEBUG] handlePhaseChange -> MAJOR reset (weights & contexts)
[DEBUG] handlePhaseChange -> MAJOR reset (weights & contexts)
[DEBUG] handlePhaseChange -> MAJOR reset (weights & contexts)
[DEBUG] handlePhaseChange -> MAJOR reset (weights & contexts)
[DEBUG] handlePhaseChange -> MAJOR reset (weights & contexts)
[DEBUG] handlePhaseChange -> MAJOR reset (weights & contexts)
[DEBUG] handlePhaseChange -> MAJOR reset (weights & contexts)
[DEBUG] handlePhaseChange -> MAJOR reset (weights & contexts)
[DEBUG] handlePhaseChange -> MAJOR reset (weights & contexts)
[DEBUG] handlePhaseChange -> MAJOR reset (weights & contexts)
[DEBUG] handlePhaseChange -> MAJOR reset (weights & contexts)
[DEBUG] handlePhaseChange -> MAJOR reset (weights & contexts)
[DEBUG] handlePhaseChange -> MAJOR reset (weights & contexts)
[DEBUG] handlePhaseChange -> MAJOR reset (weights & contexts)
[DEBUG] handlePhaseChange -> MAJOR reset (weights & contexts)
[DEBUG] handlePhaseChange -> MAJOR reset (weights & contexts)
[DEBUG] handlePhaseChange -> MAJOR reset (weights & contexts)
[DEBUG] handlePhaseChange -> MAJOR reset (weights & contexts)
[DEBUG] handlePhaseChange -> MAJOR reset (weights & contexts)
[DEBUG] handlePhaseChange -> MAJOR reset (weights & contexts)
[DEBUG] handlePhaseChange -> MAJOR reset (weights & contexts)
[DEBUG] handlePhaseChange -> MAJOR reset (weights & contexts)
[DEBUG] handlePhaseChange -> MAJOR reset (weights & contexts)
[DEBUG] handlePhaseChange -> MAJOR reset (weights & contexts)
[DEBUG] handlePhaseChange -> MAJOR reset (weights & contexts)
[DEBUG] handlePhaseChange -> MAJOR reset (weights & contexts)
[DEBUG] handlePhaseChange -> MAJOR reset (weights & contexts)
[DEBUG] handlePhaseChange -> MAJOR reset (weights & contexts)
[DEBUG] handlePhaseChange -> MAJOR reset (weights & contexts)
[DEBUG] handlePhaseChange -> MAJOR reset (weights & contexts)
[DEBUG] handlePhaseChange -> MAJOR reset (weights & contexts)
[DEBUG] handlePhaseChange -> MAJOR reset (weights & contexts)
[DEBUG] handlePhaseChange -> MAJOR reset (weights & contexts)
[DEBUG] handlePhaseChange -> MAJOR reset (weights & contexts)
[DEBUG] handlePhaseChange -> MAJOR reset (weights & contexts)
[DEBUG] handlePhaseChange -> MAJOR reset (weights & contexts)
[DEBUG] handlePhaseChange -> MAJOR reset (weights & contexts)
[DEBUG] handlePhaseChange -> MAJOR reset (weights & contexts)
[DEBUG] handlePhaseChange -> MAJOR reset (weights & contexts)
[DEBUG] handlePhaseChange -> MAJOR reset (weights & contexts)
[DEBUG] handlePhaseChange -> MAJOR reset (weights & contexts)
[DEBUG] handlePhaseChange -> MAJOR reset (weights & contexts)
[DEBUG] handlePhaseChange -> MAJOR reset (weights & contexts)
[DEBUG] handlePhaseChange -> MAJOR reset (weights & contexts)
[DEBUG] handlePhaseChange -> MAJOR reset (weights & contexts)
[DEBUG] handlePhaseChange -> MAJOR reset (weights & contexts)
[DEBUG] handlePhaseChange -> MAJOR reset (weights & contexts)
[DEBUG] handlePhaseChange -> MAJOR reset (weights & contexts)
[DEBUG] handlePhaseChange -> MAJOR reset (weights & contexts)
[DEBUG] handlePhaseChange -> MAJOR reset (weights & contexts)
[DEBUG] handlePhaseChange -> MAJOR reset (weights & contexts)
[DEBUG] handlePhaseChange -> MAJOR reset (weights & contexts)
[DEBUG] handlePhaseChange -> MAJOR reset (weights & contexts)
[DEBUG] handlePhaseChange -> MAJOR reset (weights & contexts)
[DEBUG] handlePhaseChange -> MAJOR reset (weights & contexts)
[DEBUG] handlePhaseChange -> MAJOR reset (weights & contexts)
[DEBUG] handlePhaseChange -> MAJOR reset (weights & contexts)
[DEBUG] handlePhaseChange -> MAJOR reset (weights & contexts)
[DEBUG] handlePhaseChange -> MAJOR reset (weights & contexts)
[DEBUG] handlePhaseChange -> MAJOR reset (weights & contexts)
[DEBUG] handlePhaseChange -> MAJOR reset (weights & contexts)
[DEBUG] handlePhaseChange -> MAJOR reset (weights & contexts)
[DEBUG] handlePhaseChange -> MAJOR reset (weights & contexts)
[DEBUG] handlePhaseChange -> MAJOR reset (weights & contexts)
[DEBUG] handlePhaseChange -> MAJOR reset (weights & contexts)
[DEBUG] handlePhaseChange -> MAJOR reset (weights & contexts)
[DEBUG] handlePhaseChange -> MAJOR reset (weights & contexts)
[DEBUG] handlePhaseChange -> MAJOR reset (weights & contexts)
[DEBUG] handlePhaseChange -> MAJOR reset (weights & contexts)
[DEBUG] handlePhaseChange -> MAJOR reset (weights & contexts)
[DEBUG] handlePhaseChange -> MAJOR reset (weights & contexts)
[DEBUG] handlePhaseChange -> MAJOR reset (weights & contexts)
[DEBUG] handlePhaseChange -> MAJOR reset (weights & contexts)
[DEBUG] handlePhaseChange -> MAJOR reset (weights & contexts)
[DEBUG] handlePhaseChange -> MAJOR reset (weights & contexts)
[DEBUG] handlePhaseChange -> MAJOR reset (weights & contexts)
[DEBUG] handlePhaseChange -> MAJOR reset (weights & contexts)
[DEBUG] handlePhaseChange -> MAJOR reset (weights & contexts)
[DEBUG] handlePhaseChange -> MAJOR reset (weights & contexts)
[DEBUG] handlePhaseChange -> MAJOR reset (weights & contexts)
[DEBUG] handlePhaseChange -> MAJOR reset (weights & contexts)
[DEBUG] handlePhaseChange -> MAJOR reset (weights & contexts)
[DEBUG] handlePhaseChange -> MAJOR reset (weights & contexts)
[DEBUG] handlePhaseChange -> MAJOR reset (weights & contexts)
[DEBUG] handlePhaseChange -> MAJOR reset (weights & contexts)
[DEBUG] handlePhaseChange -> MAJOR reset (weights & contexts)
[DEBUG] handlePhaseChange -> MAJOR reset (weights & contexts)
[DEBUG] handlePhaseChange -> MAJOR reset (weights & contexts)
[DEBUG] handlePhaseChange -> MAJOR reset (weights & contexts)
[DEBUG] handlePhaseChange -> MAJOR reset (weights & contexts)
[DEBUG] handlePhaseChange -> MAJOR reset (weights & contexts)
[DEBUG] handlePhaseChange -> MAJOR reset (weights & contexts)
[DEBUG] handlePhaseChange -> MAJOR reset (weights & contexts)
[DEBUG] handlePhaseChange -> MAJOR reset (weights & contexts)
[DEBUG] handlePhaseChange -> MAJOR reset (weights & contexts)
[DEBUG] handlePhaseChange -> MAJOR reset (weights & contexts)
[DEBUG] handlePhaseChange -> MAJOR reset (weights & contexts)
[DEBUG] handlePhaseChange -> MAJOR reset (weights & contexts)
[DEBUG] handlePhaseChange -> MAJOR reset (weights & contexts)
[DEBUG] handlePhaseChange -> MAJOR reset (weights & contexts)
[DEBUG] handlePhaseChange -> MAJOR reset (weights & contexts)
[DEBUG] handlePhaseChange -> MAJOR reset (weights & contexts)
[DEBUG] handlePhaseChange -> MAJOR reset (weights & contexts)
[DEBUG] handlePhaseChange -> MAJOR reset (weights & contexts)
[DEBUG] handlePhaseChange -> MAJOR reset (weights & contexts)
[DEBUG] handlePhaseChange -> MAJOR reset (weights & contexts)
[DEBUG] handlePhaseChange -> MAJOR reset (weights & contexts)
[DEBUG] handlePhaseChange -> MAJOR reset (weights & contexts)
[DEBUG] handlePhaseChange -> MAJOR reset (weights & contexts)
[DEBUG] handlePhaseChange -> MAJOR reset (weights & contexts)
[DEBUG] handlePhaseChange -> MAJOR reset (weights & contexts)
[DEBUG] handlePhaseChange -> MAJOR reset (weights & contexts)
[DEBUG] handlePhaseChange -> MAJOR reset (weights & contexts)
[DEBUG] handlePhaseChange -> MAJOR reset (weights & contexts)
[DEBUG] handlePhaseChange -> MAJOR reset (weights & contexts)
[DEBUG] handlePhaseChange -> MAJOR reset (weights & contexts)
[DEBUG] handlePhaseChange -> MAJOR reset (weights & contexts)
[DEBUG] handlePhaseChange -> MAJOR reset (weights & contexts)
[DEBUG] handlePhaseChange -> MAJOR reset (weights & contexts)
[DEBUG] handlePhaseChange -> MAJOR reset (weights & contexts)
[DEBUG] handlePhaseChange -> MAJOR reset (weights & contexts)
[DEBUG] handlePhaseChange -> MAJOR reset (weights & contexts)
[DEBUG] handlePhaseChange -> MAJOR reset (weights & contexts)
[DEBUG] handlePhaseChange -> MAJOR reset (weights & contexts)
[DEBUG] handlePhaseChange -> MAJOR reset (weights & contexts)
[DEBUG] handlePhaseChange -> MAJOR reset (weights & contexts)
[DEBUG] handlePhaseChange -> MAJOR reset (weights & contexts)
[DEBUG] handlePhaseChange -> MAJOR reset (weights & contexts)
[DEBUG] handlePhaseChange -> MAJOR reset (weights & contexts)
[DEBUG] handlePhaseChange -> MAJOR reset (weights & contexts)
[DEBUG] handlePhaseChange -> MAJOR reset (weights & contexts)
[DEBUG] handlePhaseChange -> MAJOR reset (weights & contexts)
[DEBUG] handlePhaseChange -> MAJOR reset (weights & contexts)
[DEBUG] handlePhaseChange -> MAJOR reset (weights & contexts)
[DEBUG] handlePhaseChange -> MAJOR reset (weights & contexts)
[DEBUG] handlePhaseChange -> MAJOR reset (weights & contexts)
[DEBUG] handlePhaseChange -> MAJOR reset (weights & contexts)
[DEBUG] handlePhaseChange -> MAJOR reset (weights & contexts)
[DEBUG] handlePhaseChange -> MAJOR reset (weights & contexts)
[DEBUG] handlePhaseChange -> MAJOR reset (weights & contexts)
[DEBUG] handlePhaseChange -> MAJOR reset (weights & contexts)
[DEBUG] handlePhaseChange -> MAJOR reset (weights & contexts)
[DEBUG] handlePhaseChange -> MAJOR reset (weights & contexts)
[DEBUG] handlePhaseChange -> MAJOR reset (weights & contexts)
[DEBUG] handlePhaseChange -> MAJOR reset (weights & contexts)
[DEBUG] handlePhaseChange -> MAJOR reset (weights & contexts)
[DEBUG] handlePhaseChange -> MAJOR reset (weights & contexts)
[DEBUG] handlePhaseChange -> MAJOR reset (weights & contexts)
[DEBUG] handlePhaseChange -> MAJOR reset (weights & contexts)
[DEBUG] handlePhaseChange -> MAJOR reset (weights & contexts)
[DEBUG] handlePhaseChange -> MAJOR reset (weights & contexts)
[DEBUG] handlePhaseChange -> MAJOR reset (weights & contexts)
[DEBUG] handlePhaseChange -> MAJOR reset (weights & contexts)
[DEBUG] handlePhaseChange -> MAJOR reset (weights & contexts)
[DEBUG] handlePhaseChange -> MAJOR reset (weights & contexts)
[DEBUG] handlePhaseChange -> MAJOR reset (weights & contexts)
[DEBUG] handlePhaseChange -> MAJOR reset (weights & contexts)
[DEBUG] handlePhaseChange -> MAJOR reset (weights & contexts)
[DEBUG] handlePhaseChange -> MAJOR reset (weights & contexts)
[DEBUG] handlePhaseChange -> MAJOR reset (weights & contexts)
[DEBUG] handlePhaseChange -> MAJOR reset (weights & contexts)
[DEBUG] handlePhaseChange -> MAJOR reset (weights & contexts)
[DEBUG] handlePhaseChange -> MAJOR reset (weights & contexts)
[DEBUG] handlePhaseChange -> MAJOR reset (weights & contexts)
[DEBUG] handlePhaseChange -> MAJOR reset (weights & contexts)
[DEBUG] handlePhaseChange -> MAJOR reset (weights & contexts)
[DEBUG] handlePhaseChange -> MAJOR reset (weights & contexts)
[DEBUG] handlePhaseChange -> MAJOR reset (weights & contexts)
[DEBUG] handlePhaseChange -> MAJOR reset (weights & contexts)
[DEBUG] handlePhaseChange -> MAJOR reset (weights & contexts)
[DEBUG] handlePhaseChange -> MAJOR reset (weights & contexts)
[DEBUG] handlePhaseChange -> MAJOR reset (weights & contexts)
[DEBUG] handlePhaseChange -> MAJOR reset (weights & contexts)
[DEBUG] handlePhaseChange -> MAJOR reset (weights & contexts)
[DEBUG] handlePhaseChange -> MAJOR reset (weights & contexts)
[DEBUG] handlePhaseChange -> MAJOR reset (weights & contexts)
[DEBUG] handlePhaseChange -> MAJOR reset (weights & contexts)
[DEBUG] handlePhaseChange -> MAJOR reset (weights & contexts)
[DEBUG] handlePhaseChange -> MAJOR reset (weights & contexts)
[DEBUG] handlePhaseChange -> MAJOR reset (weights & contexts)
[DEBUG] handlePhaseChange -> MAJOR reset (weights & contexts)
[DEBUG] handlePhaseChange -> MAJOR reset (weights & contexts)
[DEBUG] handlePhaseChange -> MAJOR reset (weights & contexts)
[DEBUG] handlePhaseChange -> MAJOR reset (weights & contexts)
[DEBUG] handlePhaseChange -> MAJOR reset (weights & contexts)
[DEBUG] handlePhaseChange -> MAJOR reset (weights & contexts)
[DEBUG] handlePhaseChange -> MAJOR reset (weights & contexts)
[DEBUG] handlePhaseChange -> MAJOR reset (weights & contexts)
[DEBUG] handlePhaseChange -> MAJOR reset (weights & contexts)
[DEBUG] handlePhaseChange -> MAJOR reset (weights & contexts)
[DEBUG] handlePhaseChange -> MAJOR reset (weights & contexts)
[DEBUG] handlePhaseChange -> MAJOR reset (weights & contexts)
[DEBUG] handlePhaseChange -> MAJOR reset (weights & contexts)
[DEBUG] handlePhaseChange -> MAJOR reset (weights & contexts)
[DEBUG] handlePhaseChange -> MAJOR reset (weights & contexts)
[DEBUG] handlePhaseChange -> MAJOR reset (weights & contexts)
[DEBUG] handlePhaseChange -> MAJOR reset (weights & contexts)
[DEBUG] handlePhaseChange -> MAJOR reset (weights & contexts)
[DEBUG] handlePhaseChange -> MAJOR reset (weights & contexts)
[DEBUG] handlePhaseChange -> MAJOR reset (weights & contexts)
[DEBUG] handlePhaseChange -> MAJOR reset (weights & contexts)
[DEBUG] handlePhaseChange -> MAJOR reset (weights & contexts)
[DEBUG] handlePhaseChange -> MAJOR reset (weights & contexts)
[DEBUG] handlePhaseChange -> MAJOR reset (weights & contexts)
[DEBUG] handlePhaseChange -> MAJOR reset (weights & contexts)
[DEBUG] handlePhaseChange -> MAJOR reset (weights & contexts)
[DEBUG] handlePhaseChange -> MAJOR reset (weights & contexts)
[DEBUG] handlePhaseChange -> MAJOR reset (weights & contexts)
[DEBUG] handlePhaseChange -> MAJOR reset (weights & contexts)
[DEBUG] handlePhaseChange -> MAJOR reset (weights & contexts)
[DEBUG] handlePhaseChange -> MAJOR reset (weights & contexts)
[DEBUG] handlePhaseChange -> MAJOR reset (weights & contexts)
[DEBUG] handlePhaseChange -> MAJOR reset (weights & contexts)
[DEBUG] handlePhaseChange -> MAJOR reset (weights & contexts)
[DEBUG] handlePhaseChange -> MAJOR reset (weights & contexts)
[DEBUG] handlePhaseChange -> MAJOR reset (weights & contexts)
[DEBUG] handlePhaseChange -> MAJOR reset (weights & contexts)
[DEBUG] handlePhaseChange -> MAJOR reset (weights & contexts)
[DEBUG] handlePhaseChange -> MAJOR reset (weights & contexts)
[DEBUG] handlePhaseChange -> MAJOR reset (weights & contexts)
[DEBUG] handlePhaseChange -> MAJOR reset (weights & contexts)
[DEBUG] handlePhaseChange -> MAJOR reset (weights & contexts)
[DEBUG] handlePhaseChange -> MAJOR reset (weights & contexts)
[DEBUG] handlePhaseChange -> MAJOR reset (weights & contexts)
[DEBUG] handlePhaseChange -> MAJOR reset (weights & contexts)
[DEBUG] handlePhaseChange -> MAJOR reset (weights & contexts)
[DEBUG] handlePhaseChange -> MAJOR reset (weights & contexts)
[DEBUG] handlePhaseChange -> MAJOR reset (weights & contexts)
[DEBUG] handlePhaseChange -> MAJOR reset (weights & contexts)
[DEBUG] handlePhaseChange -> MAJOR reset (weights & contexts)
[DEBUG] handlePhaseChange -> MAJOR reset (weights & contexts)
[DEBUG] handlePhaseChange -> MAJOR reset (weights & contexts)
[DEBUG] handlePhaseChange -> MAJOR reset (weights & contexts)
[DEBUG] handlePhaseChange -> MAJOR reset (weights & contexts)
[DEBUG] handlePhaseChange -> MAJOR reset (weights & contexts)
[DEBUG] handlePhaseChange -> MAJOR reset (weights & contexts)
[DEBUG] handlePhaseChange -> MAJOR reset (weights & contexts)
[DEBUG] handlePhaseChange -> MAJOR reset (weights & contexts)
[DEBUG] handlePhaseChange -> MAJOR reset (weights & contexts)
[DEBUG] handlePhaseChange -> MAJOR reset (weights & contexts)
[DEBUG] handlePhaseChange -> MAJOR reset (weights & contexts)
[DEBUG] handlePhaseChange -> MAJOR reset (weights & contexts)
[DEBUG] handlePhaseChange -> MAJOR reset (weights & contexts)
[DEBUG] handlePhaseChange -> MAJOR reset (weights & contexts)
[DEBUG] handlePhaseChange -> MAJOR reset (weights & contexts)
[DEBUG] handlePhaseChange -> MAJOR reset (weights & contexts)
[DEBUG] handlePhaseChange -> MAJOR reset (weights & contexts)
[DEBUG] handlePhaseChange -> MAJOR reset (weights & contexts)
[DEBUG] handlePhaseChange -> MAJOR reset (weights & contexts)
[DEBUG] handlePhaseChange -> MAJOR reset (weights & contexts)
[DEBUG] handlePhaseChange -> MAJOR reset (weights & contexts)
[DEBUG] handlePhaseChange -> MAJOR reset (weights & contexts)
[DEBUG] handlePhaseChange -> MAJOR reset (weights & contexts)
[DEBUG] handlePhaseChange -> MAJOR reset (weights & contexts)
[DEBUG] handlePhaseChange -> MAJOR reset (weights & contexts)
[DEBUG] handlePhaseChange -> MAJOR reset (weights & contexts)
[DEBUG] handlePhaseChange -> MAJOR reset (weights & contexts)
[DEBUG] handlePhaseChange -> MAJOR reset (weights & contexts)
[DEBUG] handlePhaseChange -> MAJOR reset (weights & contexts)
[DEBUG] handlePhaseChange -> MAJOR reset (weights & contexts)
[DEBUG] handlePhaseChange -> MAJOR reset (weights & contexts)
[DEBUG] handlePhaseChange -> MAJOR reset (weights & contexts)
[DEBUG] handlePhaseChange -> MAJOR reset (weights & contexts)
[DEBUG] handlePhaseChange -> MAJOR reset (weights & contexts)
[DEBUG] handlePhaseChange -> MAJOR reset (weights & contexts)
[DEBUG] handlePhaseChange -> MAJOR reset (weights & contexts)
[DEBUG] handlePhaseChange -> MAJOR reset (weights & contexts)
[DEBUG] handlePhaseChange -> MAJOR reset (weights & contexts)
[DEBUG] handlePhaseChange -> MAJOR reset (weights & contexts)
[DEBUG] handlePhaseChange -> MAJOR reset (weights & contexts)
[DEBUG] handlePhaseChange -> MAJOR reset (weights & contexts)
[DEBUG] handlePhaseChange -> MAJOR reset (weights & contexts)
[DEBUG] handlePhaseChange -> MAJOR reset (weights & contexts)
[DEBUG] handlePhaseChange -> MAJOR reset (weights & contexts)
[DEBUG] handlePhaseChange -> MAJOR reset (weights & contexts)
[DEBUG] handlePhaseChange -> MAJOR reset (weights & contexts)
[DEBUG] handlePhaseChange -> MAJOR reset (weights & contexts)
[DEBUG] handlePhaseChange -> MAJOR reset (weights & contexts)
[DEBUG] handlePhaseChange -> MAJOR reset (weights & contexts)
[DEBUG] handlePhaseChange -> MAJOR reset (weights & contexts)
[DEBUG] handlePhaseChange -> MAJOR reset (weights & contexts)
[DEBUG] handlePhaseChange -> MAJOR reset (weights & contexts)
[DEBUG] handlePhaseChange -> MAJOR reset (weights & contexts)
[DEBUG] handlePhaseChange -> MAJOR reset (weights & contexts)
[DEBUG] handlePhaseChange -> MAJOR reset (weights & contexts)
[DEBUG] handlePhaseChange -> MAJOR reset (weights & contexts)
[DEBUG] handlePhaseChange -> MAJOR reset (weights & contexts)
[DEBUG] handlePhaseChange -> MAJOR reset (weights & contexts)
[DEBUG] handlePhaseChange -> MAJOR reset (weights & contexts)
[DEBUG] handlePhaseChange -> MAJOR reset (weights & contexts)
[DEBUG] handlePhaseChange -> MAJOR reset (weights & contexts)
[DEBUG] handlePhaseChange -> MAJOR reset (weights & contexts)
[DEBUG] handlePhaseChange -> MAJOR reset (weights & contexts)
[DEBUG] handlePhaseChange -> MAJOR reset (weights & contexts)
[DEBUG] handlePhaseChange -> MAJOR reset (weights & contexts)
[DEBUG] handlePhaseChange -> MAJOR reset (weights & contexts)
[DEBUG] handlePhaseChange -> MAJOR reset (weights & contexts)
[DEBUG] handlePhaseChange -> MAJOR reset (weights & contexts)
[DEBUG] handlePhaseChange -> MAJOR reset (weights & contexts)
[DEBUG] handlePhaseChange -> MAJOR reset (weights & contexts)
[DEBUG] handlePhaseChange -> MAJOR reset (weights & contexts)
[DEBUG] handlePhaseChange -> MAJOR reset (weights & contexts)
[DEBUG] handlePhaseChange -> MAJOR reset (weights & contexts)
[DEBUG] handlePhaseChange -> MAJOR reset (weights & contexts)
[DEBUG] handlePhaseChange -> MAJOR reset (weights & contexts)
[DEBUG] handlePhaseChange -> MAJOR reset (weights & contexts)
[DEBUG] handlePhaseChange -> MAJOR reset (weights & contexts)
[DEBUG] handlePhaseChange -> MAJOR reset (weights & contexts)
[DEBUG] handlePhaseChange -> MAJOR reset (weights & contexts)
[DEBUG] handlePhaseChange -> MAJOR reset (weights & contexts)
[DEBUG] handlePhaseChange -> MAJOR reset (weights & contexts)
[DEBUG] handlePhaseChange -> MAJOR reset (weights & contexts)
[DEBUG] handlePhaseChange -> MAJOR reset (weights & contexts)
[DEBUG] handlePhaseChange -> MAJOR reset (weights & contexts)
[DEBUG] handlePhaseChange -> MAJOR reset (weights & contexts)
[DEBUG] handlePhaseChange -> MAJOR reset (weights & contexts)
[DEBUG] handlePhaseChange -> MAJOR reset (weights & contexts)
[DEBUG] handlePhaseChange -> MAJOR reset (weights & contexts)
[DEBUG] handlePhaseChange -> MAJOR reset (weights & contexts)
[DEBUG] handlePhaseChange -> MAJOR reset (weights & contexts)
[DEBUG] handlePhaseChange -> MAJOR reset (weights & contexts)
[DEBUG] handlePhaseChange -> MAJOR reset (weights & contexts)
[DEBUG] handlePhaseChange -> MAJOR reset (weights & contexts)
[DEBUG] handlePhaseChange -> MAJOR reset (weights & contexts)
[DEBUG] handlePhaseChange -> MAJOR reset (weights & contexts)
[DEBUG] handlePhaseChange -> MAJOR reset (weights & contexts)
[DEBUG] handlePhaseChange -> MAJOR reset (weights & contexts)
[DEBUG] handlePhaseChange -> MAJOR reset (weights & contexts)
[DEBUG] handlePhaseChange -> MAJOR reset (weights & contexts)
[DEBUG] handlePhaseChange -> MAJOR reset (weights & contexts)
[DEBUG] handlePhaseChange -> MAJOR reset (weights & contexts)
[DEBUG] handlePhaseChange -> MAJOR reset (weights & contexts)
[DEBUG] handlePhaseChange -> MAJOR reset (weights & contexts)
[DEBUG] handlePhaseChange -> MAJOR reset (weights & contexts)
[DEBUG] handlePhaseChange -> MAJOR reset (weights & contexts)
[DEBUG] handlePhaseChange -> MAJOR reset (weights & contexts)
[...]
scooby_state_4561c3|7|1 1,0,0,0,0,0,0,0,0,0,0,0,0,0,0,1,
scooby_state_455c87|31|31 1,0,0,0,0,0,0,0,0,0,0,0,0,0,0,1,
scooby_state_456483|18|0 1,0,0,0,0,0,0,0,0,0,0,0,0,0,0,1,
scooby_state_4568c2|35|1 1,0,0,0,0,0,0,0,0,0,0,0,0,0,0,1,
scooby_state_456412|62|8 1,0,0,0,0,0,0,0,0,0,0,0,0,0,0,1,
scooby_state_456412|63|9 1,0,0,0,0,0,0,0,0,0,0,0,0,0,0,1,
scooby_state_457020|18|-33 1,0,0,0,0,0,0,0,0,0,0,0,0,0,0,1,
scooby_state_4570be|22|1 1,0,0,0,0,0,0,0,0,0,0,0,0,0,0,1,
scooby_state_456412|0|0 1,0,0,0,0,0,0,0,0,0,0,0,0,0,0,1,
scooby_state_457020|16|-33 1,0,0,0,0,0,0,0,0,0,0,0,0,0,0,1,
scooby_state_456412|1|0 1,0,0,0,0,0,0,0,0,0,0,0,0,0,0,1,
scooby_state_4563e3|6|0 1,0,0,0,0,0,0,0,0,0,0,0,0,0,0,1,
scooby_state_457204|8|2 1,0,0,0,0,0,0,0,0,0,0,0,0,0,0,1,
scooby_state_4563ec|0|-34 1,0,0,0,0,0,0,0,0,0,0,0,0,0,0,1,
scooby_state_4563e3|7|0 1,0,0,0,0,0,0,0,0,0,0,0,0,0,0,1,
scooby_state_4563e3|8|0 1,0,0,0,0,0,0,0,0,0,0,0,0,0,0,1,
scooby_state_4563ec|3|-34 1,0,0,0,0,0,0,0,0,0,0,0,0,0,0,1,
scooby_state_456412|4|0 1,0,0,0,0,0,0,0,0,0,0,0,0,0,0,1,
scooby_state_4563e3|9|0 1,0,0,0,0,0,0,0,0,0,0,0,0,0,0,1,
scooby_state_457219|29|28 1,0,0,0,0,0,0,0,0,0,0,0,0,0,0,1,
scooby_state_457219|18|17 1,0,0,0,0,0,0,0,0,0,0,0,0,0,0,1,
scooby_state_45714c|10|2 1,0,0,0,0,0,0,0,0,0,0,0,0,0,0,1,
scooby_state_457219|12|11 1,0,0,0,0,0,0,0,0,0,0,0,0,0,0,1,
scooby_state_457070|62|7 1,0,0,0,0,0,0,0,0,0,0,0,0,0,0,1,
scooby_state_457020|52|1 1,0,0,0,0,0,0,0,0,0,0,0,0,0,0,1,
scooby_state_456360|45|40 0,0,1,0,0,0,0,0,0,0,0,0,0,0,0,1,
scooby_state_4570be|4|1 1,0,0,0,0,0,0,0,0,0,0,0,0,0,0,1,
scooby_state_457219|21|20 1,0,0,0,0,0,0,0,0,0,0,0,0,0,0,1,
scooby_state_457070|60|5 1,0,0,0,0,0,0,0,0,0,0,0,0,0,0,1,
scooby_state_455cbe|13|-50 1,0,0,0,0,0,0,0,0,0,0,0,0,0,0,1,
scooby_state_45704f|14|0 1,0,0,0,0,0,0,0,0,0,0,0,0,0,0,1,
scooby_state_457282|10|1 1,0,0,0,0,0,0,0,0,0,0,0,0,0,0,1,
scooby_state_45708b|8|-1 1,0,0,0,0,0,0,0,0,0,0,0,0,0,0,1,
scooby_state_456183|6|1 1,0,0,0,0,0,0,0,0,0,0,0,0,0,0,1,
scooby_state_455e78|10|9 1,0,0,0,0,0,0,0,0,0,0,0,0,0,0,1,
scooby_state_457109|3|1 1,0,0,0,0,0,0,0,0,0,0,0,0,0,0,1,
scooby_state_457204|6|0 1,0,0,0,0,0,0,0,0,0,0,0,0,0,0,1,
scooby_state_4572c3|11|0 1,0,0,0,0,0,0,0,0,0,0,0,0,0,0,1,
scooby_state_457070|20|0 1,0,0,0,0,0,0,0,0,0,0,0,0,0,0,1,
scooby_state_457020|35|1 1,0,0,0,0,0,0,0,0,0,0,0,0,0,0,1,
scooby_state_45704f|28|0 1,0,0,0,0,0,0,0,0,0,0,0,0,0,0,1,
scooby_state_457020|56|31 1,0,0,0,0,0,0,0,0,0,0,0,0,0,0,1,
scooby_state_457204|7|2 1,0,0,0,0,0,0,0,0,0,0,0,0,0,0,1,
scooby_state_45704f|1|0 1,0,0,0,0,0,0,0,0,0,0,0,0,0,0,1,
scooby_state_457070|57|2 1,0,0,0,0,0,0,0,0,0,0,0,0,0,0,1,
scooby_state_457020|31|-32 1,0,0,0,0,0,0,0,0,0,0,0,0,0,0,1,
scooby_state_457219|22|21 1,0,0,0,0,0,0,0,0,0,0,0,0,0,0,1,
scooby_state_455e2e|3|0 1,0,0,0,0,0,0,0,0,0,0,0,0,0,0,1,
scooby_state_45704f|62|2 1,0,0,0,0,0,0,0,0,0,0,0,0,0,0,1,
scooby_state_457020|46|1 1,0,0,0,0,0,0,0,0,0,0,0,0,0,0,1,
scooby_state_455e78|6|-30 1,0,0,0,0,0,0,0,0,0,0,0,0,0,0,1,
scooby_state_457020|42|31 1,0,0,0,0,0,0,0,0,0,0,0,0,0,0,1,
scooby_state_456984|38|1 0,0,0,0,0,0,0,0,0,0,1,0,0,0,0,1,
scooby_state_456bc1|47|1 1,0,0,0,0,0,0,0,0,0,0,0,0,0,0,1,
scooby_state_456839|49|-10 1,0,0,0,0,0,0,0,0,0,0,0,0,0,0,1,
scooby_state_4567cd|42|-5 1,0,0,0,0,0,0,0,0,0,0,0,0,0,0,1,
scooby_state_456b03|44|1 1,0,0,0,0,0,0,0,0,0,0,0,0,0,0,1,
scooby_state_456ac3|43|1 1,0,0,0,0,0,0,0,0,0,0,0,0,0,0,1,
scooby_state_455e78|12|11 1,0,0,0,0,0,0,0,0,0,0,0,0,0,0,1,
scooby_state_456a46|41|1 1,0,0,0,0,0,0,0,0,0,0,0,0,0,0,1,
scooby_state_4569c4|39|1 1,0,0,0,0,0,0,0,0,0,0,0,0,0,0,1,
scooby_state_456c05|48|1 0,0,1,0,0,0,0,0,0,0,0,0,0,0,0,1,
scooby_state_455e63|12|6 1,0,0,0,0,0,0,0,0,0,0,0,0,0,0,1,
scooby_state_456904|36|1 1,0,0,0,0,0,0,0,0,0,0,0,0,0,0,1,
scooby_state_4566e0|51|-2 1,0,0,0,0,0,0,0,0,0,0,0,0,0,0,1,
scooby_state_456686|62|13 1,0,0,0,0,0,0,0,0,0,0,0,0,0,0,1,
scooby_state_45664a|49|-2 1,0,0,0,0,0,0,0,0,0,0,0,0,0,0,1,
scooby_state_4565d2|9|-14 1,0,0,0,0,0,0,0,0,0,0,0,0,0,0,1,
scooby_state_45651e|23|2 1,0,0,0,0,0,0,0,0,0,0,0,0,0,0,1,
scooby_state_455d24|10|-32 1,0,0,0,0,0,0,0,0,0,0,0,0,0,0,1,
scooby_state_456c44|49|1 1,0,0,0,0,0,0,0,0,0,0,0,0,0,0,1,
scooby_state_456908|44|-5 1,0,0,0,0,0,0,0,0,0,0,0,0,0,0,1,
scooby_state_456d00|52|1 1,0,0,0,0,0,0,0,0,0,0,0,0,0,0,1,
scooby_state_456d40|53|1 1,0,0,0,0,0,0,0,0,0,0,0,0,0,0,1,
scooby_state_456d80|54|1 1,0,0,0,0,0,0,0,0,0,0,0,0,0,0,1,
scooby_state_456e40|57|1 0,1,0,0,0,0,0,0,0,0,0,0,0,0,0,1,
scooby_state_456e85|58|1 1,0,0,0,0,0,0,0,0,0,0,0,0,0,0,1,
scooby_state_456ec5|59|1 1,0,0,0,0,0,0,0,0,0,0,0,0,0,0,1,
scooby_state_456f03|60|1 0,0,0,0,0,0,0,0,0,0,1,0,0,0,0,1,
scooby_state_456f42|61|1 1,0,0,0,0,0,0,0,0,0,0,0,0,0,0,1,
scooby_state_457204|37|31 1,0,0,0,0,0,0,0,0,0,0,0,0,0,0,1,
scooby_state_457101|4|1 1,0,0,0,0,0,0,0,0,0,0,0,0,0,0,1,
scooby_state_457183|6|1 1,0,0,0,0,0,0,0,0,0,0,0,0,0,0,1,
scooby_state_457204|8|1 1,0,0,0,0,0,0,0,0,0,0,0,0,0,0,1,
scooby_state_45708b|7|0 1,0,0,0,0,0,0,0,0,0,0,0,0,0,0,1,
scooby_state_455cde|24|0 1,0,0,0,0,0,0,0,0,0,0,0,0,0,0,1,
scooby_state_456040|1|1 1,0,0,0,0,0,0,0,0,0,0,0,0,0,0,1,
scooby_state_455fc5|63|1 0,0,0,0,0,0,0,0,0,0,1,0,0,0,0,1,
scooby_state_455c8d|40|34 1,0,0,0,0,0,0,0,0,0,0,0,0,0,0,1,
scooby_state_455cde|25|0 1,0,0,0,0,0,0,0,0,0,0,0,0,0,0,1,
scooby_state_455cde|4|0 1,0,0,0,0,0,0,0,0,0,0,0,0,0,0,1,
scooby_state_455c87|44|31 1,0,0,0,0,0,0,0,0,0,0,0,0,0,0,1,
scooby_state_455cbe|29|-34 1,0,0,0,0,0,0,0,0,0,0,0,0,0,0,1,
scooby_state_455d24|20|1 1,0,0,0,0,0,0,0,0,0,0,0,0,0,0,1,
scooby_state_456080|2|1 1,0,0,0,0,0,0,0,0,0,0,0,0,0,0,1,
scooby_state_455c87|58|31 1,0,0,0,0,0,0,0,0,0,0,0,0,0,0,1,
scooby_state_455e63|32|26 1,0,0,0,0,0,0,0,0,0,0,0,0,0,0,1,
scooby_state_457020|51|31 1,0,0,0,0,0,0,0,0,0,0,0,0,0,0,1,
scooby_state_455cbe|28|-35 1,0,0,0,0,0,0,0,0,0,0,0,0,0,0,1,
scooby_state_455cde|22|0 1,0,0,0,0,0,0,0,0,0,0,0,0,0,0,1,
scooby_state_455cde|23|0 1,0,0,0,0,0,0,0,0,0,0,0,0,0,0,1,
scooby_state_455e63|37|31 1,0,0,0,0,0,0,0,0,0,0,0,0,0,0,1,
scooby_state_456183|59|17 1,0,0,0,0,0,0,0,0,0,0,0,0,0,0,1,
scooby_state_456412|57|2 1,0,0,0,0,0,0,0,0,0,0,0,0,0,0,1,
scooby_state_455cbe|11|-52 1,0,0,0,0,0,0,0,0,0,0,0,0,0,0,1,
scooby_state_456412|20|0 1,0,0,0,0,0,0,0,0,0,0,0,0,0,0,1,
scooby_state_4563e3|62|2 1,0,0,0,0,0,0,0,0,0,0,0,0,0,0,1,
scooby_state_456442|17|1 1,0,0,0,0,0,0,0,0,0,0,0,0,0,0,1,
scooby_state_456347|13|1 1,0,0,0,0,0,0,0,0,0,0,0,0,0,0,1,
scooby_state_4562c4|11|1 1,0,0,0,0,0,0,0,0,0,0,0,0,0,0,1,
scooby_state_457219|1|0 1,0,0,0,0,0,0,0,0,0,0,0,0,0,0,1,
scooby_state_455e78|32|31 1,0,0,0,0,0,0,0,0,0,0,0,0,0,0,1,
scooby_state_455fcd|52|-11 1,0,0,0,0,0,0,0,0,0,0,0,0,0,0,1,
scooby_state_455f91|63|0 1,0,0,0,0,0,0,0,0,0,0,0,0,0,0,1,
scooby_state_456140|5|1 1,0,0,0,0,0,0,0,0,0,0,0,0,0,0,1,
scooby_state_456101|4|1 1,0,0,0,0,0,0,0,0,0,0,0,0,0,0,1,
scooby_state_455f73|23|4 1,0,0,0,0,0,0,0,0,0,0,0,0,0,0,1,
scooby_state_455f55|19|1 1,0,0,0,0,0,0,0,0,0,0,0,0,0,0,1,
scooby_state_455cde|10|0 1,0,0,0,0,0,0,0,0,0,0,0,0,0,0,1,
scooby_state_456412|22|0 1,0,0,0,0,0,0,0,0,0,0,0,0,0,0,1,
scooby_state_455d24|26|1 1,0,0,0,0,0,0,0,0,0,0,0,0,0,0,1,
scooby_state_455e63|33|27 1,0,0,0,0,0,0,0,0,0,0,0,0,0,0,1,
scooby_state_455cde|18|0 1,0,0,0,0,0,0,0,0,0,0,0,0,0,0,1,
scooby_state_455e78|27|26 1,0,0,0,0,0,0,0,0,0,0,0,0,0,0,1,
scooby_state_455d24|15|1 1,0,0,0,0,0,0,0,0,0,0,0,0,0,0,1,
scooby_state_455cbe|22|-41 1,0,0,0,0,0,0,0,0,0,0,0,0,0,0,1,
scooby_state_455c87|53|31 1,0,0,0,0,0,0,0,0,0,0,0,0,0,0,1,
scooby_state_457020|7|-33 1,0,0,0,0,0,0,0,0,0,0,0,0,0,0,1,
scooby_state_455cbe|19|-44 1,0,0,0,0,0,0,0,0,0,0,0,0,0,0,1,
scooby_state_455d24|4|1 1,0,0,0,0,0,0,0,0,0,0,0,0,0,0,1,
scooby_state_455e63|30|24 1,0,0,0,0,0,0,0,0,0,0,0,0,0,0,1,
scooby_state_455d24|2|-32 1,0,0,0,0,0,0,0,0,0,0,0,0,0,0,1,
scooby_state_455c87|42|31 1,0,0,0,0,0,0,0,0,0,0,0,0,0,0,1,
scooby_state_455e78|18|17 1,0,0,0,0,0,0,0,0,0,0,0,0,0,0,1,
scooby_state_455c8d|46|34 1,0,0,0,0,0,0,0,0,0,0,0,0,0,0,1,
scooby_state_455d24|18|1 1,0,0,0,0,0,0,0,0,0,0,0,0,0,0,1,
scooby_state_4570d3|31|0 1,0,0,0,0,0,0,0,0,0,0,0,0,0,0,1,
scooby_state_455d24|27|-32 1,0,0,0,0,0,0,0,0,0,0,0,0,0,0,1,
scooby_state_4565f0|10|1 1,0,0,0,0,0,0,0,0,0,0,0,0,0,0,1,
scooby_state_455cbe|24|-39 1,0,0,0,0,0,0,0,0,0,0,0,0,0,0,1,
scooby_state_455e78|29|28 1,0,0,0,0,0,0,0,0,0,0,0,0,0,0,1,
scooby_state_455d24|12|1 1,0,0,0,0,0,0,0,0,0,0,0,0,0,0,1,
scooby_state_455cde|20|0 1,0,0,0,0,0,0,0,0,0,0,0,0,0,0,1,
scooby_state_455c87|36|31 1,0,0,0,0,0,0,0,0,0,0,0,0,0,0,1,
scooby_state_455e63|35|29 1,0,0,0,0,0,0,0,0,0,0,0,0,0,0,1,
scooby_state_455cde|21|0 1,0,0,0,0,0,0,0,0,0,0,0,0,0,0,1,
scooby_state_455cbe|26|-37 1,0,0,0,0,0,0,0,0,0,0,0,0,0,0,1,
scooby_state_455e78|31|30 1,0,0,0,0,0,0,0,0,0,0,0,0,0,0,1,
scooby_state_455c87|50|1 1,0,0,0,0,0,0,0,0,0,0,0,0,0,0,1,
scooby_state_455c87|47|31 1,0,0,0,0,0,0,0,0,0,0,0,0,0,0,1,
scooby_state_455cbe|27|-36 1,0,0,0,0,0,0,0,0,0,0,0,0,0,0,1,
scooby_state_455d24|9|1 1,0,0,0,0,0,0,0,0,0,0,0,0,0,0,1,
scooby_state_4563e3|11|0 1,0,0,0,0,0,0,0,0,0,0,0,0,0,0,1,
scooby_state_455d24|6|-32 1,0,0,0,0,0,0,0,0,0,0,0,0,0,0,1,
scooby_state_4566c2|47|-15 1,0,0,0,0,0,0,0,0,0,0,0,0,0,0,1,
scooby_state_4563ec|21|-34 1,0,0,0,0,0,0,0,0,0,0,0,0,0,0,1,
scooby_state_455d24|22|1 1,0,0,0,0,0,0,0,0,0,0,0,0,0,0,1,
scooby_state_456412|3|0 1,0,0,0,0,0,0,0,0,0,0,0,0,0,0,1,
scooby_state_45704f|5|0 1,0,0,0,0,0,0,0,0,0,0,0,0,0,0,1,
scooby_state_457219|26|25 1,0,0,0,0,0,0,0,0,0,0,0,0,0,0,1,
scooby_state_457020|60|31 1,0,0,0,0,0,0,0,0,0,0,0,0,0,0,1,
scooby_state_457204|21|15 1,0,0,0,0,0,0,0,0,0,0,0,0,0,0,1,
scooby_state_457204|26|20 1,0,0,0,0,0,0,0,0,0,0,0,0,0,0,1,
scooby_state_455c87|60|31 1,0,0,0,0,0,0,0,0,0,0,0,0,0,0,1,
scooby_state_457219|20|19 1,0,0,0,0,0,0,0,0,0,0,0,0,0,0,1,
scooby_state_455c87|35|31 1,0,0,0,0,0,0,0,0,0,0,0,0,0,0,1,
scooby_state_456fc7|63|1 1,0,0,0,0,0,0,0,0,0,0,0,0,0,0,1,
scooby_state_457219|7|6 0,0,1,0,0,0,0,0,0,0,0,0,0,0,0,1,
scooby_state_455e63|14|8 1,0,0,0,0,0,0,0,0,0,0,0,0,0,0,1,
scooby_state_455c87|54|31 1,0,0,0,0,0,0,0,0,0,0,0,0,0,0,1,
scooby_state_4563e3|63|4 1,0,0,0,0,0,0,0,0,0,0,0,0,0,0,1,
scooby_state_455cbe|7|-56 1,0,0,0,0,0,0,0,0,0,0,0,0,0,0,1,
scooby_state_4563e3|21|0 1,0,0,0,0,0,0,0,0,0,0,0,0,0,0,1,
scooby_state_455cf9|40|0 1,0,0,0,0,0,0,0,0,0,0,0,0,0,0,1,
scooby_state_4566c2|27|1 1,0,0,0,0,0,0,0,0,0,0,0,0,0,0,1,
scooby_state_457219|23|22 0,0,0,0,0,0,0,0,0,0,1,0,0,0,0,1,
scooby_state_456203|8|1 0,0,0,0,0,0,0,0,0,0,1,0,0,0,0,1,
scooby_state_457204|36|30 1,0,0,0,0,0,0,0,0,0,0,0,0,0,0,1,
scooby_state_456500|21|1 1,0,0,0,0,0,0,0,0,0,0,0,0,0,0,1,
scooby_state_456285|10|1 1,0,0,0,0,0,0,0,0,0,0,0,0,0,0,1,
scooby_state_456723|43|-5 1,0,0,0,0,0,0,0,0,0,0,0,0,0,0,1,
scooby_state_456668|53|-2 1,0,0,0,0,0,0,0,0,0,0,0,0,0,0,1,
scooby_state_455d87|30|29 1,0,0,0,0,0,0,0,0,0,0,0,0,0,0,1,
scooby_state_455cde|5|0 1,0,0,0,0,0,0,0,0,0,0,0,0,0,0,1,
scooby_state_457020|53|31 1,0,0,0,0,0,0,0,0,0,0,0,0,0,0,1,
scooby_state_457070|12|0 1,0,0,0,0,0,0,0,0,0,0,0,0,0,0,1,
scooby_state_455cbe|6|-57 1,0,0,0,0,0,0,0,0,0,0,0,0,0,0,1,
scooby_state_45704f|29|-33 1,0,0,0,0,0,0,0,0,0,0,0,0,0,0,1,
scooby_state_455cbe|4|-59 1,0,0,0,0,0,0,0,0,0,0,0,0,0,0,1,
scooby_state_457219|32|31 1,0,0,0,0,0,0,0,0,0,0,0,0,0,0,1,
scooby_state_455cde|62|7 1,0,0,0,0,0,0,0,0,0,0,0,0,0,0,1,
scooby_state_455c8d|54|34 1,0,0,0,0,0,0,0,0,0,0,0,0,0,0,1,
scooby_state_45704f|21|0 1,0,0,0,0,0,0,0,0,0,0,0,0,0,0,1,
scooby_state_456cc6|51|1 1,0,0,0,0,0,0,0,0,0,0,0,0,0,0,1,
scooby_state_455e63|13|7 1,0,0,0,0,0,0,0,0,0,0,0,0,0,0,1,
scooby_state_45714c|9|2 1,0,0,0,0,0,0,0,0,0,0,0,0,0,0,1,
scooby_state_457020|62|31 1,0,0,0,0,0,0,0,0,0,0,0,0,0,0,1,
scooby_state_4563e3|26|0 1,0,0,0,0,0,0,0,0,0,0,0,0,0,0,1,
scooby_state_456412|58|4 1,0,0,0,0,0,0,0,0,0,0,0,0,0,0,1,
scooby_state_455c87|46|31 1,0,0,0,0,0,0,0,0,0,0,0,0,0,0,1,
scooby_state_457219|10|9 1,0,0,0,0,0,0,0,0,0,0,0,0,0,0,1,
scooby_state_455cbe|2|-61 1,0,0,0,0,0,0,0,0,0,0,0,0,0,0,1,
scooby_state_457070|15|0 1,0,0,0,0,0,0,0,0,0,0,0,0,0,0,1,
scooby_state_457020|36|31 1,0,0,0,0,0,0,0,0,0,0,0,0,0,0,1,
scooby_state_455c87|49|31 1,0,0,0,0,0,0,0,0,0,0,0,0,0,0,1,
scooby_state_455cde|63|8 1,0,0,0,0,0,0,0,0,0,0,0,0,0,0,1,
scooby_state_455afc|51|1 1,0,0,0,0,0,0,0,0,0,0,0,0,0,0,1,
scooby_state_455e63|16|10 1,0,0,0,0,0,0,0,0,0,0,0,0,0,0,1,
scooby_state_455e46|57|1 1,0,0,0,0,0,0,0,0,0,0,0,0,0,0,1,
scooby_state_457020|34|1 1,0,0,0,0,0,0,0,0,0,0,0,0,0,0,1,
scooby_state_4560c1|3|1 1,0,0,0,0,0,0,0,0,0,0,0,0,0,0,1,
scooby_state_457219|28|27 1,0,0,0,0,0,0,0,0,0,0,0,0,0,0,1,
scooby_state_45704f|16|0 1,0,0,0,0,0,0,0,0,0,0,0,0,0,0,1,
scooby_state_455d24|10|1 1,0,0,0,0,0,0,0,0,0,0,0,0,0,0,1,
scooby_state_455e63|38|32 1,0,0,0,0,0,0,0,0,0,0,0,0,0,0,1,
scooby_state_456578|52|-11 1,0,0,0,0,0,0,0,0,0,0,0,0,0,0,1,
scooby_state_4570cb|9|6 1,0,0,0,0,0,0,0,0,0,0,0,0,0,0,1,
scooby_state_455c8d|33|0 1,0,0,0,0,0,0,0,0,0,0,0,0,0,0,1,

scooby_action_0_deg_dist 0,448696,0,0,0,0,0,0,0,0,0,0,0,0,0,0,
scooby_action_-6_deg_dist 0,1782,0,0,0,0,0,0,0,0,0,0,0,0,0,0,
scooby_action_4_deg_dist 0,121127,0,0,0,0,0,0,0,0,0,0,0,0,0,0,
scooby_action_1_deg_dist 0,11600585,0,0,0,0,0,0,0,0,0,0,0,0,0,0,
scooby_action_30_deg_dist 0,24786,0,0,0,0,0,0,0,0,0,0,0,0,0,0,
scooby_action_5_deg_dist 0,1854,0,0,0,0,0,0,0,0,0,0,0,0,0,0,
scooby_action_3_deg_dist 0,2066,0,0,0,0,0,0,0,0,0,0,0,0,0,0,
scooby_action_32_deg_dist 0,664861,0,0,0,0,0,0,0,0,0,0,0,0,0,0,
scooby_action_10_deg_dist 0,2147,0,0,0,0,0,0,0,0,0,0,0,0,0,0,
scooby_action_11_deg_dist 0,1864,0,0,0,0,0,0,0,0,0,0,0,0,0,0,
scooby_action_12_deg_dist 0,1975,0,0,0,0,0,0,0,0,0,0,0,0,0,0,
scooby_action_22_deg_dist 0,1823,0,0,0,0,0,0,0,0,0,0,0,0,0,0,
scooby_action_23_deg_dist 0,1759,0,0,0,0,0,0,0,0,0,0,0,0,0,0,
scooby_action_-1_deg_dist 0,1837,0,0,0,0,0,0,0,0,0,0,0,0,0,0,
scooby_action_-3_deg_dist 0,1762,0,0,0,0,0,0,0,0,0,0,0,0,0,0,

scooby_track_called 11695369
scooby_track_same_address 42468
scooby_track_evict 11652645

scooby_reward_demand_called 12878924
scooby_reward_demand_pt_not_found 4905569
scooby_reward_demand_pt_found 7973355
scooby_reward_demand_pt_found_total 7973355
scooby_reward_demand_has_reward 38
scooby_reward_train_called 3679489
scooby_reward_assign_reward_called 11652806
scooby_reward_no_pref 0
scooby_reward_incorrect 3679489
scooby_reward_correct_untimely 238071
scooby_reward_correct_timely 7735246
scooby_reward_out_of_bounds 0
scooby_reward_tracker_hit 0

scooby_reward_none_low_bw 0
scooby_reward_none_high_bw 0
scooby_reward_incorrect_low_bw 3679489
scooby_reward_incorrect_high_bw 0
scooby_reward_correct_untimely_low_bw 238071
scooby_reward_correct_untimely_high_bw 0
scooby_reward_correct_timely_low_bw 7735246
scooby_reward_correct_timely_high_bw 0
scooby_reward_out_of_bounds_low_bw 0
scooby_reward_out_of_bounds_high_bw 0
scooby_reward_tracker_hit_low_bw 0
scooby_reward_tracker_hit_high_bw 0

scooby_reward_1 0,3600584,224897,7553890,0,0,
scooby_reward_3 0,1542,13,281,0,0,
scooby_reward_4 0,54820,13143,45613,0,0,
scooby_reward_5 0,1415,2,273,0,0,
scooby_reward_10 0,1381,2,252,0,0,
scooby_reward_11 0,1301,2,249,0,0,
scooby_reward_12 0,1368,4,240,0,0,
scooby_reward_22 0,1183,1,5,0,0,
scooby_reward_23 0,1104,1,12,0,0,
scooby_reward_30 0,965,0,5,0,0,
scooby_reward_32 0,9816,5,134426,0,0,
scooby_reward_-1 0,1226,1,0,0,0,
scooby_reward_-3 0,1435,0,0,0,0,
scooby_reward_-6 0,1349,0,0,0,0,
scooby_reward_0 0,0,0,0,0,0,

scooby_train_called 11652644
scooby_train_compute_reward 3679489

scooby_register_fill_called 11413151
scooby_register_fill_set 11413151
scooby_register_fill_set_total 11413151

scooby_register_prefetch_hit_called 9597
scooby_register_prefetch_hit_set 9597
scooby_register_prefetch_hit_set_total 9597

scooby_pref_issue_scooby 11652901

learning_engine_featurewise.action.called 12878924
learning_engine_featurewise.action.explore 23336
learning_engine_featurewise.action.exploit 12855588
learning_engine_featurewise.action.fallback 0
learning_engine_featurewise.action.dyn_fallback_saved_bw 0
learning_engine_featurewise.action.dyn_fallback_saved_bw_acc 130842
learning_engine_featurewise.action.index_1_explored 1587
learning_engine_featurewise.action.index_1_exploited 11598998
learning_engine_featurewise.action.index_3_explored 1544
learning_engine_featurewise.action.index_3_exploited 522
learning_engine_featurewise.action.index_4_explored 1601
learning_engine_featurewise.action.index_4_exploited 119526
learning_engine_featurewise.action.index_5_explored 1531
learning_engine_featurewise.action.index_5_exploited 323
learning_engine_featurewise.action.index_10_explored 1582
learning_engine_featurewise.action.index_10_exploited 565
learning_engine_featurewise.action.index_11_explored 1536
learning_engine_featurewise.action.index_11_exploited 328
learning_engine_featurewise.action.index_12_explored 1636
learning_engine_featurewise.action.index_12_exploited 339
learning_engine_featurewise.action.index_22_explored 1592
learning_engine_featurewise.action.index_22_exploited 231
learning_engine_featurewise.action.index_23_explored 1514
learning_engine_featurewise.action.index_23_exploited 245
learning_engine_featurewise.action.index_30_explored 1547
learning_engine_featurewise.action.index_30_exploited 23239
learning_engine_featurewise.action.index_32_explored 1495
learning_engine_featurewise.action.index_32_exploited 663366
learning_engine_featurewise.action.index_-1_explored 1573
learning_engine_featurewise.action.index_-1_exploited 264
learning_engine_featurewise.action.index_-3_explored 1525
learning_engine_featurewise.action.index_-3_exploited 237
learning_engine_featurewise.action.index_-6_explored 1517
learning_engine_featurewise.action.index_-6_exploited 265
learning_engine_featurewise.action.index_0_explored 1556
learning_engine_featurewise.action.index_0_exploited 447140
learning_engine_featurewise.learn.called 11652644
learning_engine_featurewise.learn.su_skip_PC 0
learning_engine_featurewise.learn.su_skip_PC_Delta 0

learning_engine_featurewise.q_value_histogram.bucket_0 0
learning_engine_featurewise.q_value_histogram.bucket_1 0
learning_engine_featurewise.q_value_histogram.bucket_2 1115
learning_engine_featurewise.q_value_histogram.bucket_3 117435
learning_engine_featurewise.q_value_histogram.bucket_4 377775
learning_engine_featurewise.q_value_histogram.bucket_5 291514
learning_engine_featurewise.q_value_histogram.bucket_6 12067749
learning_engine_featurewise.q_value_histogram.bucket_7 0

learning_engine_featurewise.consensus.total 12855588
learning_engine_featurewise.consensus.feature_align_PC 12359114
learning_engine_featurewise.consensus.feature_align_PC_ratio 0.96
learning_engine_featurewise.consensus.feature_align_PC_Delta 12046563
learning_engine_featurewise.consensus.feature_align_PC_Delta_ratio 0.94
learning_engine_featurewise.consensus.feature_align_all 11550089
learning_engine_featurewise.consensus.feature_align_all_ratio 0.90

learning_engine_featurewise.feature_PC_min_weight 1000000.00000000
learning_engine_featurewise.feature_PC_max_weight 0.00000000
learning_engine_featurewise.feature_PC_Delta_min_weight 1000000.00000000
learning_engine_featurewise.feature_PC_Delta_max_weight 0.00000000
unique_pcs 225
unique_pages 828286
unique_trigger_pcs 89
total_bitmaps_seen 0
unique_bitmaps_seen 0

scooby_bw_epochs 4058509
scooby_bw_level_0 1633145
scooby_bw_level_1 1983466
scooby_bw_level_2 361875
scooby_bw_level_3 80023

scooby_ipc_epochs 0
scooby_ipc_level_0 0
scooby_ipc_level_1 0
scooby_ipc_level_2 0
scooby_ipc_level_3 0

scooby_cache_acc_epochs 809226
scooby_cache_acc_level_0 200
scooby_cache_acc_level_1 590
scooby_cache_acc_level_2 4025
scooby_cache_acc_level_3 4852
scooby_cache_acc_level_4 17359
scooby_cache_acc_level_5 104643
scooby_cache_acc_level_6 307739
scooby_cache_acc_level_7 223149
scooby_cache_acc_level_8 90382
scooby_cache_acc_level_9 56287

Channel_0_RQ_row_buffer_hit 3652969
Channel_0_RQ_row_buffer_miss 8444914
Channel_0_WQ_row_buffer_hit 1449559
Channel_0_WQ_row_buffer_miss 3637789
Channel_0_WQ_full 0
Channel_0_dbus_congested 7739993

avg_congested_cycle 10

DRAM_bw_pochs 4058509
DRAM_bw_level_0 1633145
DRAM_bw_level_1 1983466
DRAM_bw_level_2 361875
DRAM_bw_level_3 80023
