*************************************************
   ChampSim Multicore Out-of-Order Simulator
   Last compiled: Apr  8 2025 10:20:20
*************************************************
parsing config file: /home/Pythia/config/pythia.ini

trace_0 /home/Pythia/traces/654.roms_s-1007B.champsimtrace.xz
adding L2C_PREFETCHER: Scooby
Initialize SHIP state
warmup_instructions 100000000
simulation_instructions 500000000
champsim_seed 266
measure_ipc 0
measure_ipc_epoch 1000
measure_dram_bw 1
measure_dram_bw_epoch 256
measure_cache_acc 1
measure_cache_acc_epoch 1024
l1d_perfect 0
l2c_perfect 0
llc_perfect 0
l1d_semi_perfect 0
l2c_semi_perfect 0
llc_semi_perfect 0
semi_perfect_cache_page_buffer_size 64

num_cpus 1
cpu_freq 4000
dram_io_freq 2400
page_size 4096
block_size 64
max_read_per_cycle 8
max_fill_per_cycle 1
dram_channels 1
log2_dram_channels 0
dram_ranks 1
dram_banks 8
dram_rows 65536
dram_columns 128
dram_row_size 8
dram_size 4096
dram_pages 1048576

fetch_width 6
decode_width 6
exec_width 4
lq_width 2
sq_width 2
retire_width 4
scheduler_size 128
branch_mispredict_penalty 20
rob_size 256
lq_size 72
sq_size 56
num_instr_destinations_sparc 4
num_instr_destinations 2
num_instr_sources 4

itlb_set 16
itlb_way 8
itlb_rq_size 16
itlb_wq_size 16
itlb_pq_size 0
itlb_mshr_size 8
itlb_latency 1

dtlb_set 16
dtlb_way 4
dtlb_rq_size 16
dtlb_wq_size 16
dtlb_pq_size 0
dtlb_mshr_size 8
dtlb_latency 1

stlb_set 128
stlb_way 12
stlb_rq_size 32
stlb_wq_size 32
stlb_pq_size 0
stlb_mshr_size 16
stlb_latency 8

l1i_size 32
l1i_set 64
l1i_way 8
l1i_rq_size 64
l1i_wq_size 64
l1i_pq_size 8
l1i_mshr_size 8
l1i_latency 1

l1d_size 32
l1d_set 64
l1d_way 8
l1d_rq_size 64
l1d_wq_size 64
l1d_pq_size 8
l1d_mshr_size 16
l1d_latency 4

l2c_size 256
l2c_set 512
l2c_way 8
l2c_rq_size 32
l2c_wq_size 32
l2c_pq_size 32
l2c_mshr_size 32
l2c_latency 10

llc_size 2048
llc_set 2048
llc_way 16
llc_rq_size 32
llc_wq_size 32
llc_pq_size 32
llc_mshr_size 64
llc_latency 20

dram_channel_width 8
dram_wq_size 64
dram_rq_size 64
tRP 15
tRCD 15
tCAS 12.5
dram_dbus_turn_around_time 30
dram_write_high_wm 56
dram_write_low_wm 48
min_dram_writes_per_switch 16
dram_mtps 2400
dram_dbus_return_time 13

scooby_alpha 0.0065088
scooby_gamma 0.556301
scooby_epsilon 0.00182284
scooby_state_num_bits 10
scooby_max_states 1024
scooby_seed 200
scooby_policy EGreedy
scooby_learning_type SARSA
scooby_actions 1,3,4,5,10,11,12,22,23,30,32,-1,-3,-6,0,
scooby_max_actions 15
scooby_pt_size 256
scooby_st_size 64
scooby_max_pcs 5
scooby_max_offsets 5
scooby_max_deltas 5
scooby_reward_none -4
scooby_reward_incorrect -8
scooby_reward_correct_untimely 12
scooby_reward_correct_timely 20
scooby_brain_zero_init 0
scooby_enable_reward_all 0
scooby_enable_track_multiple 0
scooby_enable_reward_out_of_bounds 1
scooby_reward_out_of_bounds -12
scooby_state_type 1
scooby_state_hash_type 11
scooby_access_debug 0
scooby_print_access_debug 0
scooby_print_access_debug_pc deadbeef
scooby_print_access_debug_pc_count 0
scooby_print_trace 0
scooby_enable_state_action_stats 1
scooby_enable_reward_tracker_hit 0
scooby_reward_tracker_hit -2
scooby_enable_featurewise_engine 1
scooby_pref_degree 1
scooby_enable_dyn_degree 1
scooby_max_to_avg_q_thresholds 0.5,1,2,
scooby_dyn_degrees 1,2,4,4,
scooby_multi_deg_select_type 2
scooby_last_pref_offset_conf_thresholds 1,3,8,
scooby_dyn_degrees_type2 1,2,4,6,
scooby_action_tracker_size 2
scooby_high_bw_thresh 4
scooby_enable_hbw_reward 1
scooby_reward_hbw_correct_timely 20
scooby_reward_hbw_correct_untimely 12
scooby_reward_hbw_incorrect -14
scooby_reward_hbw_none -2
scooby_reward_hbw_out_of_bounds -12
scooby_reward_hbw_tracker_hit -2
scooby_last_pref_offset_conf_thresholds_hbw 1,3,8,
scooby_dyn_degrees_type2_hbw 1,2,4,6,

le_enable_trace 0
le_trace_interval 0
le_trace_file_name 
le_trace_state 0
le_enable_score_plot 0
le_plot_file_name 
le_plot_actions 
le_enable_action_trace 0
le_action_trace_interval 0
le_action_trace_name 
le_enable_action_plot 0

le_featurewise_active_features PC, PC_Delta
le_featurewise_num_tilings 3,3,
le_featurewise_num_tiles 128,128,
le_featurewise_hash_types 2,2,
le_featurewise_enable_tiling_offset 1,1,
le_featurewise_max_q_thresh 0.5
le_featurewise_enable_action_fallback 1
le_featurewise_feature_weights 1,1,
le_featurewise_enable_dynamic_weight 0
le_featurewise_weight_gradient 0.001
le_featurewise_disable_adjust_weight_all_features_align 1
le_featurewise_selective_update 0
le_featurewise_pooling_type 2
le_featurewise_enable_dyn_action_fallback 1
le_featurewise_bw_acc_check_level 1
le_featurewise_acc_thresh 2
le_featurewise_enable_trace 0
le_featurewise_trace_feature_type 0
le_featurewise_trace_feature 
le_featurewise_trace_interval 0
le_featurewise_trace_record_count 0
le_featurewise_trace_file_name 
le_featurewise_enable_score_plot 0
le_featurewise_plot_actions 
le_featurewise_plot_file_name 


[DEBUG] handlePhaseChange -> MAJOR reset (weights & contexts)
[DEBUG] handlePhaseChange() invoked with level = 2
[DEBUG] handlePhaseChange -> MAJOR reset (weights & contexts)
[DEBUG] handlePhaseChange() invoked with level = 2
[DEBUG] handlePhaseChange -> MAJOR reset (weights & contexts)
[DEBUG] handlePhaseChange() invoked with level = 2
[DEBUG] handlePhaseChange -> MAJOR reset (weights & contexts)
[DEBUG] handlePhaseChange() invoked with level = 2
[DEBUG] handlePhaseChange -> MAJOR reset (weights & contexts)
[DEBUG] handlePhaseChange() invoked with level = 2
[DEBUG] handlePhaseChange -> MAJOR reset (weights & contexts)
[DEBUG] handlePhaseChange() invoked with level = 2
[DEBUG] handlePhaseChange -> MAJOR reset (weights & contexts)
[DEBUG] handlePhaseChange() invoked with level = 2
[DEBUG] handlePhaseChange -> MAJOR reset (weights & contexts)
[DEBUG] handlePhaseChange() invoked with level = 2
[DEBUG] handlePhaseChange -> MAJOR reset (weights & contexts)
[DEBUG] handlePhaseChange() invoked with level = 2
[DEBUG] handlePhaseChange -> MAJOR reset (weights & contexts)
[DEBUG] handlePhaseChange() invoked with level = 2
[DEBUG] handlePhaseChange -> MAJOR reset (weights & contexts)
[DEBUG] handlePhaseChange() invoked with level = 2
[DEBUG] handlePhaseChange -> MAJOR reset (weights & contexts)
[DEBUG] handlePhaseChange() invoked with level = 2
[DEBUG] handlePhaseChange -> MAJOR reset (weights & contexts)
[DEBUG] handlePhaseChange() invoked with level = 2
[DEBUG] handlePhaseChange -> MAJOR reset (weights & contexts)
[DEBUG] handlePhaseChange() invoked with level = 2
[DEBUG] handlePhaseChange -> MAJOR reset (weights & contexts)
[DEBUG] handlePhaseChange() invoked with level = 2
[DEBUG] handlePhaseChange -> MAJOR reset (weights & contexts)
[DEBUG] handlePhaseChange() invoked with level = 2
[DEBUG] handlePhaseChange -> MAJOR reset (weights & contexts)
[DEBUG] handlePhaseChange() invoked with level = 2
[DEBUG] handlePhaseChange -> MAJOR reset (weights & contexts)
[DEBUG] handlePhaseChange() invoked with level = 2
[DEBUG] handlePhaseChange -> MAJOR reset (weights & contexts)
[DEBUG] handlePhaseChange() invoked with level = 2
[DEBUG] handlePhaseChange -> MAJOR reset (weights & contexts)
[DEBUG] handlePhaseChange() invoked with level = 2
[DEBUG] handlePhaseChange -> MAJOR reset (weights & contexts)
[DEBUG] handlePhaseChange() invoked with level = 2
[DEBUG] handlePhaseChange -> MAJOR reset (weights & contexts)
[DEBUG] handlePhaseChange() invoked with level = 2
[DEBUG] handlePhaseChange -> MAJOR reset (weights & contexts)
[DEBUG] handlePhaseChange() invoked with level = 2
[DEBUG] handlePhaseChange -> MAJOR reset (weights & contexts)
[DEBUG] handlePhaseChange() invoked with level = 2
[DEBUG] handlePhaseChange -> MAJOR reset (weights & contexts)
[DEBUG] handlePhaseChange() invoked with level = 2
[DEBUG] handlePhaseChange -> MAJOR reset (weights & contexts)
[DEBUG] handlePhaseChange() invoked with level = 2
[DEBUG] handlePhaseChange -> MAJOR reset (weights & contexts)
[DEBUG] handlePhaseChange() invoked with level = 2
[DEBUG] handlePhaseChange -> MAJOR reset (weights & contexts)
[DEBUG] handlePhaseChange() invoked with level = 2
[DEBUG] handlePhaseChange -> MAJOR reset (weights & contexts)
[DEBUG] handlePhaseChange() invoked with level = 2
[DEBUG] handlePhaseChange -> MAJOR reset (weights & contexts)
[DEBUG] handlePhaseChange() invoked with level = 2
[DEBUG] handlePhaseChange -> MAJOR reset (weights & contexts)
[DEBUG] handlePhaseChange() invoked with level = 2
[DEBUG] handlePhaseChange -> MAJOR reset (weights & contexts)
[DEBUG] handlePhaseChange() invoked with level = 2
[DEBUG] handlePhaseChange -> MAJOR reset (weights & contexts)
[DEBUG] handlePhaseChange() invoked with level = 2
[DEBUG] handlePhaseChange -> MAJOR reset (weights & contexts)
[DEBUG] handlePhaseChange() invoked with level = 2
[DEBUG] handlePhaseChange -> MAJOR reset (weights & contexts)
[DEBUG] handlePhaseChange() invoked with level = 2
[DEBUG] handlePhaseChange -> MAJOR reset (weights & contexts)
[DEBUG] handlePhaseChange() invoked with level = 2
[DEBUG] handlePhaseChange -> MAJOR reset (weights & contexts)
[DEBUG] handlePhaseChange() invoked with level = 2
[DEBUG] handlePhaseChange -> MAJOR reset (weights & contexts)
[DEBUG] handlePhaseChange() invoked with level = 2
[DEBUG] handlePhaseChange -> MAJOR reset (weights & contexts)
[DEBUG] handlePhaseChange() invoked with level = 2
[DEBUG] handlePhaseChange -> MAJOR reset (weights & contexts)
[DEBUG] handlePhaseChange() invoked with level = 2
[DEBUG] handlePhaseChange -> MAJOR reset (weights & contexts)
[DEBUG] handlePhaseChange() invoked with level = 2
[DEBUG] handlePhaseChange -> MAJOR reset (weights & contexts)
[DEBUG] handlePhaseChange() invoked with level = 2
[DEBUG] handlePhaseChange -> MAJOR reset (weights & contexts)
[DEBUG] handlePhaseChange() invoked with level = 2
[DEBUG] handlePhaseChange -> MAJOR reset (weights & contexts)
[DEBUG] handlePhaseChange() invoked with level = 2
[DEBUG] handlePhaseChange -> MAJOR reset (weights & contexts)
[DEBUG] handlePhaseChange() invoked with level = 2
[DEBUG] handlePhaseChange -> MAJOR reset (weights & contexts)
[DEBUG] handlePhaseChange() invoked with level = 2
[DEBUG] handlePhaseChange -> MAJOR reset (weights & contexts)
[DEBUG] handlePhaseChange() invoked with level = 2
[DEBUG] handlePhaseChange -> MAJOR reset (weights & contexts)
[DEBUG] handlePhaseChange() invoked with level = 2
[DEBUG] handlePhaseChange -> MAJOR reset (weights & contexts)
[DEBUG] handlePhaseChange() invoked with level = 2
[DEBUG] handlePhaseChange -> MAJOR reset (weights & contexts)
[DEBUG] handlePhaseChange() invoked with level = 2
[DEBUG] handlePhaseChange -> MAJOR reset (weights & contexts)
[DEBUG] handlePhaseChange() invoked with level = 2
[DEBUG] handlePhaseChange -> MAJOR reset (weights & contexts)
[DEBUG] handlePhaseChange() invoked with level = 2
[DEBUG] handlePhaseChange -> MAJOR reset (weights & contexts)
[DEBUG] handlePhaseChange() invoked with level = 2
[DEBUG] handlePhaseChange -> MAJOR reset (weights & contexts)
[DEBUG] handlePhaseChange() invoked with level = 2
[DEBUG] handlePhaseChange -> MAJOR reset (weights & contexts)
[DEBUG] handlePhaseChange() invoked with level = 2
[DEBUG] handlePhaseChange -> MAJOR reset (weights & contexts)
[DEBUG] handlePhaseChange() invoked with level = 2
[DEBUG] handlePhaseChange -> MAJOR reset (weights & contexts)
[DEBUG] handlePhaseChange() invoked with level = 2
[DEBUG] handlePhaseChange -> MAJOR reset (weights & contexts)
[DEBUG] handlePhaseChange() invoked with level = 2
[DEBUG] handlePhaseChange -> MAJOR reset (weights & contexts)
[DEBUG] handlePhaseChange() invoked with level = 2
[DEBUG] handlePhaseChange -> MAJOR reset (weights & contexts)
[DEBUG] handlePhaseChange() invoked with level = 2
[DEBUG] handlePhaseChange -> MAJOR reset (weights & contexts)
[DEBUG] handlePhaseChange() invoked with level = 2
[DEBUG] handlePhaseChange -> MAJOR reset (weights & contexts)
[DEBUG] handlePhaseChange() invoked with level = 2
[DEBUG] handlePhaseChange -> MAJOR reset (weights & contexts)
[DEBUG] handlePhaseChange() invoked with level = 2
[DEBUG] handlePhaseChange -> MAJOR reset (weights & contexts)
[DEBUG] handlePhaseChange() invoked with level = 2
[DEBUG] handlePhaseChange -> MAJOR reset (weights & contexts)
[DEBUG] handlePhaseChange() invoked with level = 2
[DEBUG] handlePhaseChange -> MAJOR reset (weights & contexts)
[DEBUG] handlePhaseChange() invoked with level = 2
[DEBUG] handlePhaseChange -> MAJOR reset (weights & contexts)
[DEBUG] handlePhaseChange() invoked with level = 2
[DEBUG] handlePhaseChange -> MAJOR reset (weights & contexts)
[DEBUG] handlePhaseChange() invoked with level = 2
[DEBUG] handlePhaseChange -> MAJOR reset (weights & contexts)
[DEBUG] handlePhaseChange() invoked with level = 2
[DEBUG] handlePhaseChange -> MAJOR reset (weights & contexts)
[DEBUG] handlePhaseChange() invoked with level = 2
[DEBUG] handlePhaseChange -> MAJOR reset (weights & contexts)
[DEBUG] handlePhaseChange() invoked with level = 2
[DEBUG] handlePhaseChange -> MAJOR reset (weights & contexts)
[DEBUG] handlePhaseChange() invoked with level = 2
[DEBUG] handlePhaseChange -> MAJOR reset (weights & contexts)
[DEBUG] handlePhaseChange() invoked with level = 2
[DEBUG] handlePhaseChange -> MAJOR reset (weights & contexts)
[DEBUG] handlePhaseChange() invoked with level = 2
[DEBUG] handlePhaseChange -> MAJOR reset (weights & contexts)
[DEBUG] handlePhaseChange() invoked with level = 2
[DEBUG] handlePhaseChange -> MAJOR reset (weights & contexts)
[DEBUG] handlePhaseChange() invoked with level = 2
[DEBUG] handlePhaseChange -> MAJOR reset (weights & contexts)
[DEBUG] handlePhaseChange() invoked with level = 2
[DEBUG] handlePhaseChange -> MAJOR reset (weights & contexts)
[DEBUG] handlePhaseChange() invoked with level = 2
Heartbeat CPU  0 instructions:    1000000 cycles:     465932 heartbeat IPC: 2.14624 cumulative IPC: 2.14624 (Simulation time: 0 hr 0 min 2 sec) 
[DEBUG] handlePhaseChange -> MAJOR reset (weights & contexts)
[DEBUG] handlePhaseChange() invoked with level = 2
[DEBUG] handlePhaseChange -> MAJOR reset (weights & contexts)
[DEBUG] handlePhaseChange() invoked with level = 2
[DEBUG] handlePhaseChange -> MAJOR reset (weights & contexts)
[DEBUG] handlePhaseChange() invoked with level = 2
[DEBUG] handlePhaseChange -> MAJOR reset (weights & contexts)
[DEBUG] handlePhaseChange() invoked with level = 2
[DEBUG] handlePhaseChange -> MAJOR reset (weights & contexts)
[DEBUG] handlePhaseChange() invoked with level = 2
[DEBUG] handlePhaseChange -> MAJOR reset (weights & contexts)
[DEBUG] handlePhaseChange() invoked with level = 2
[DEBUG] handlePhaseChange -> MAJOR reset (weights & contexts)
[DEBUG] handlePhaseChange() invoked with level = 2
[DEBUG] handlePhaseChange -> MAJOR reset (weights & contexts)
[DEBUG] handlePhaseChange() invoked with level = 2
[DEBUG] handlePhaseChange -> MAJOR reset (weights & contexts)
[DEBUG] handlePhaseChange() invoked with level = 2
[DEBUG] handlePhaseChange -> MAJOR reset (weights & contexts)
[DEBUG] handlePhaseChange() invoked with level = 2
[DEBUG] handlePhaseChange -> MAJOR reset (weights & contexts)
[DEBUG] handlePhaseChange() invoked with level = 2
[DEBUG] handlePhaseChange -> MAJOR reset (weights & contexts)
[DEBUG] handlePhaseChange() invoked with level = 2
[DEBUG] handlePhaseChange -> MAJOR reset (weights & contexts)
[DEBUG] handlePhaseChange() invoked with level = 2
[DEBUG] handlePhaseChange -> MAJOR reset (weights & contexts)
[DEBUG] handlePhaseChange() invoked with level = 2
[DEBUG] handlePhaseChange -> MAJOR reset (weights & contexts)
[DEBUG] handlePhaseChange() invoked with level = 2
[DEBUG] handlePhaseChange -> MAJOR reset (weights & contexts)
[DEBUG] handlePhaseChange() invoked with level = 2
[DEBUG] handlePhaseChange -> MAJOR reset (weights & contexts)
[DEBUG] handlePhaseChange() invoked with level = 2
[DEBUG] handlePhaseChange -> MAJOR reset (weights & contexts)
[DEBUG] handlePhaseChange() invoked with level = 2
[DEBUG] handlePhaseChange -> MAJOR reset (weights & contexts)
[DEBUG] handlePhaseChange() invoked with level = 2
[DEBUG] handlePhaseChange -> MAJOR reset (weights & contexts)
[DEBUG] handlePhaseChange() invoked with level = 2
[DEBUG] handlePhaseChange -> MAJOR reset (weights & contexts)
[DEBUG] handlePhaseChange() invoked with level = 2
[DEBUG] handlePhaseChange -> MAJOR reset (weights & contexts)
[DEBUG] handlePhaseChange() invoked with level = 2
[DEBUG] handlePhaseChange -> MAJOR reset (weights & contexts)
[DEBUG] handlePhaseChange -> MAJOR reset (weights & contexts)
[DEBUG] handlePhaseChange -> MAJOR reset (weights & contexts)
[DEBUG] handlePhaseChange -> MAJOR reset (weights & contexts)
Heartbeat CPU  0 instructions:    2000001 cycles:     931406 heartbeat IPC: 2.14835 cumulative IPC: 2.14729 (Simulation time: 0 hr 0 min 4 sec) 
[DEBUG] handlePhaseChange -> MAJOR reset (weights & contexts)
[DEBUG] handlePhaseChange -> MAJOR reset (weights & contexts)
[DEBUG] handlePhaseChange -> MAJOR reset (weights & contexts)
[DEBUG] handlePhaseChange -> MAJOR reset (weights & contexts)
[DEBUG] handlePhaseChange -> MAJOR reset (weights & contexts)
[DEBUG] handlePhaseChange -> MAJOR reset (weights & contexts)
[DEBUG] handlePhaseChange -> MAJOR reset (weights & contexts)
[DEBUG] handlePhaseChange -> MAJOR reset (weights & contexts)
[DEBUG] handlePhaseChange -> MAJOR reset (weights & contexts)
[DEBUG] handlePhaseChange -> MAJOR reset (weights & contexts)
[DEBUG] handlePhaseChange -> MAJOR reset (weights & contexts)
[DEBUG] handlePhaseChange -> MAJOR reset (weights & contexts)
[DEBUG] handlePhaseChange -> MAJOR reset (weights & contexts)
[DEBUG] handlePhaseChange -> MAJOR reset (weights & contexts)
[DEBUG] handlePhaseChange -> MAJOR reset (weights & contexts)
[DEBUG] handlePhaseChange -> MAJOR reset (weights & contexts)
[DEBUG] handlePhaseChange -> MAJOR reset (weights & contexts)
[DEBUG] handlePhaseChange -> MAJOR reset (weights & contexts)
[DEBUG] handlePhaseChange -> MAJOR reset (weights & contexts)
[DEBUG] handlePhaseChange -> MAJOR reset (weights & contexts)
[DEBUG] handlePhaseChange -> MAJOR reset (weights & contexts)
[DEBUG] handlePhaseChange -> MAJOR reset (weights & contexts)
[DEBUG] handlePhaseChange -> MAJOR reset (weights & contexts)
[DEBUG] handlePhaseChange -> MAJOR reset (weights & contexts)
[DEBUG] handlePhaseChange -> MAJOR reset (weights & contexts)
[DEBUG] handlePhaseChange -> MAJOR reset (weights & contexts)
[DEBUG] handlePhaseChange -> MAJOR reset (weights & contexts)
[DEBUG] handlePhaseChange -> MAJOR reset (weights & contexts)
[DEBUG] handlePhaseChange -> MAJOR reset (weights & contexts)
[DEBUG] handlePhaseChange -> MAJOR reset (weights & contexts)
[DEBUG] handlePhaseChange -> MAJOR reset (weights & contexts)
[DEBUG] handlePhaseChange -> MAJOR reset (weights & contexts)
[DEBUG] handlePhaseChange -> MAJOR reset (weights & contexts)
[DEBUG] handlePhaseChange -> MAJOR reset (weights & contexts)
[DEBUG] handlePhaseChange -> MAJOR reset (weights & contexts)
Heartbeat CPU  0 instructions:    3000000 cycles:    1396842 heartbeat IPC: 2.14852 cumulative IPC: 2.14770 (Simulation time: 0 hr 0 min 5 sec) 
[DEBUG] handlePhaseChange -> MAJOR reset (weights & contexts)
[DEBUG] handlePhaseChange -> MAJOR reset (weights & contexts)
[DEBUG] handlePhaseChange -> MAJOR reset (weights & contexts)
[DEBUG] handlePhaseChange -> MAJOR reset (weights & contexts)
[DEBUG] handlePhaseChange -> MAJOR reset (weights & contexts)
[DEBUG] handlePhaseChange -> MAJOR reset (weights & contexts)
[DEBUG] handlePhaseChange -> MAJOR reset (weights & contexts)
[DEBUG] handlePhaseChange -> MAJOR reset (weights & contexts)
[DEBUG] handlePhaseChange -> MAJOR reset (weights & contexts)
[DEBUG] handlePhaseChange -> MAJOR reset (weights & contexts)
[DEBUG] handlePhaseChange -> MAJOR reset (weights & contexts)
[DEBUG] handlePhaseChange -> MAJOR reset (weights & contexts)
[DEBUG] handlePhaseChange -> MAJOR reset (weights & contexts)
[DEBUG] handlePhaseChange -> MAJOR reset (weights & contexts)
[DEBUG] handlePhaseChange -> MAJOR reset (weights & contexts)
[DEBUG] handlePhaseChange -> MAJOR reset (weights & contexts)
[DEBUG] handlePhaseChange -> MAJOR reset (weights & contexts)
[DEBUG] handlePhaseChange -> MAJOR reset (weights & contexts)
[DEBUG] handlePhaseChange -> MAJOR reset (weights & contexts)
[DEBUG] handlePhaseChange -> MAJOR reset (weights & contexts)
[DEBUG] handlePhaseChange -> MAJOR reset (weights & contexts)
[DEBUG] handlePhaseChange -> MAJOR reset (weights & contexts)
[DEBUG] handlePhaseChange -> MAJOR reset (weights & contexts)
[DEBUG] handlePhaseChange -> MAJOR reset (weights & contexts)
[DEBUG] handlePhaseChange -> MAJOR reset (weights & contexts)
[DEBUG] handlePhaseChange -> MAJOR reset (weights & contexts)
[DEBUG] handlePhaseChange -> MAJOR reset (weights & contexts)
[DEBUG] handlePhaseChange -> MAJOR reset (weights & contexts)
[DEBUG] handlePhaseChange -> MAJOR reset (weights & contexts)
[DEBUG] handlePhaseChange -> MAJOR reset (weights & contexts)
[DEBUG] handlePhaseChange -> MAJOR reset (weights & contexts)
[DEBUG] handlePhaseChange -> MAJOR reset (weights & contexts)
[DEBUG] handlePhaseChange -> MAJOR reset (weights & contexts)
[DEBUG] handlePhaseChange -> MAJOR reset (weights & contexts)
[DEBUG] handlePhaseChange -> MAJOR reset (weights & contexts)
Heartbeat CPU  0 instructions:    4000000 cycles:    1862184 heartbeat IPC: 2.14896 cumulative IPC: 2.14802 (Simulation time: 0 hr 0 min 7 sec) 
[DEBUG] handlePhaseChange -> MAJOR reset (weights & contexts)
[DEBUG] handlePhaseChange -> MAJOR reset (weights & contexts)
[DEBUG] handlePhaseChange -> MAJOR reset (weights & contexts)
[DEBUG] handlePhaseChange -> MAJOR reset (weights & contexts)
[DEBUG] handlePhaseChange -> MAJOR reset (weights & contexts)
[DEBUG] handlePhaseChange -> MAJOR reset (weights & contexts)
[DEBUG] handlePhaseChange -> MAJOR reset (weights & contexts)
[DEBUG] handlePhaseChange -> MAJOR reset (weights & contexts)
[DEBUG] handlePhaseChange -> MAJOR reset (weights & contexts)
[DEBUG] handlePhaseChange -> MAJOR reset (weights & contexts)
[DEBUG] handlePhaseChange -> MAJOR reset (weights & contexts)
[DEBUG] handlePhaseChange -> MAJOR reset (weights & contexts)
[DEBUG] handlePhaseChange -> MAJOR reset (weights & contexts)
[DEBUG] handlePhaseChange -> MAJOR reset (weights & contexts)
[DEBUG] handlePhaseChange -> MAJOR reset (weights & contexts)
[DEBUG] handlePhaseChange -> MAJOR reset (weights & contexts)
[DEBUG] handlePhaseChange -> MAJOR reset (weights & contexts)
[DEBUG] handlePhaseChange -> MAJOR reset (weights & contexts)
[DEBUG] handlePhaseChange -> MAJOR reset (weights & contexts)
[DEBUG] handlePhaseChange -> MAJOR reset (weights & contexts)
[DEBUG] handlePhaseChange -> MAJOR reset (weights & contexts)
[DEBUG] handlePhaseChange -> MAJOR reset (weights & contexts)
[DEBUG] handlePhaseChange -> MAJOR reset (weights & contexts)
[DEBUG] handlePhaseChange -> MAJOR reset (weights & contexts)
[DEBUG] handlePhaseChange -> MAJOR reset (weights & contexts)
[DEBUG] handlePhaseChange -> MAJOR reset (weights & contexts)
[DEBUG] handlePhaseChange -> MAJOR reset (weights & contexts)
[DEBUG] handlePhaseChange -> MAJOR reset (weights & contexts)
[DEBUG] handlePhaseChange -> MAJOR reset (weights & contexts)
[DEBUG] handlePhaseChange -> MAJOR reset (weights & contexts)
[DEBUG] handlePhaseChange -> MAJOR reset (weights & contexts)
[DEBUG] handlePhaseChange -> MAJOR reset (weights & contexts)
[DEBUG] handlePhaseChange -> MAJOR reset (weights & contexts)
[DEBUG] handlePhaseChange -> MAJOR reset (weights & contexts)
[DEBUG] handlePhaseChange -> MAJOR reset (weights & contexts)
Heartbeat CPU  0 instructions:    5000001 cycles:    2327532 heartbeat IPC: 2.14893 cumulative IPC: 2.14820 (Simulation time: 0 hr 0 min 9 sec) 
[DEBUG] handlePhaseChange -> MAJOR reset (weights & contexts)
[DEBUG] handlePhaseChange -> MAJOR reset (weights & contexts)
[DEBUG] handlePhaseChange -> MAJOR reset (weights & contexts)
[DEBUG] handlePhaseChange -> MAJOR reset (weights & contexts)
[DEBUG] handlePhaseChange -> MAJOR reset (weights & contexts)
[DEBUG] handlePhaseChange -> MAJOR reset (weights & contexts)
[DEBUG] handlePhaseChange -> MAJOR reset (weights & contexts)
[DEBUG] handlePhaseChange -> MAJOR reset (weights & contexts)
[DEBUG] handlePhaseChange -> MAJOR reset (weights & contexts)
[DEBUG] handlePhaseChange -> MAJOR reset (weights & contexts)
[DEBUG] handlePhaseChange -> MAJOR reset (weights & contexts)
[DEBUG] handlePhaseChange -> MAJOR reset (weights & contexts)
[DEBUG] handlePhaseChange -> MAJOR reset (weights & contexts)
[DEBUG] handlePhaseChange -> MAJOR reset (weights & contexts)
[DEBUG] handlePhaseChange -> MAJOR reset (weights & contexts)
[DEBUG] handlePhaseChange -> MAJOR reset (weights & contexts)
[DEBUG] handlePhaseChange -> MAJOR reset (weights & contexts)
[DEBUG] handlePhaseChange -> MAJOR reset (weights & contexts)
[DEBUG] handlePhaseChange -> MAJOR reset (weights & contexts)
[DEBUG] handlePhaseChange -> MAJOR reset (weights & contexts)
[DEBUG] handlePhaseChange -> MAJOR reset (weights & contexts)
[DEBUG] handlePhaseChange -> MAJOR reset (weights & contexts)
[DEBUG] handlePhaseChange -> MAJOR reset (weights & contexts)
[DEBUG] handlePhaseChange -> MAJOR reset (weights & contexts)
[DEBUG] handlePhaseChange -> MAJOR reset (weights & contexts)
[DEBUG] handlePhaseChange -> MAJOR reset (weights & contexts)
[DEBUG] handlePhaseChange -> MAJOR reset (weights & contexts)
[DEBUG] handlePhaseChange -> MAJOR reset (weights & contexts)
[DEBUG] handlePhaseChange -> MAJOR reset (weights & contexts)
[DEBUG] handlePhaseChange -> MAJOR reset (weights & contexts)
[DEBUG] handlePhaseChange -> MAJOR reset (weights & contexts)
[DEBUG] handlePhaseChange -> MAJOR reset (weights & contexts)
[DEBUG] handlePhaseChange -> MAJOR reset (weights & contexts)
[DEBUG] handlePhaseChange -> MAJOR reset (weights & contexts)
Heartbeat CPU  0 instructions:    6000000 cycles:    2793016 heartbeat IPC: 2.14830 cumulative IPC: 2.14822 (Simulation time: 0 hr 0 min 11 sec) 
[DEBUG] handlePhaseChange -> MAJOR reset (weights & contexts)
[DEBUG] handlePhaseChange -> MAJOR reset (weights & contexts)
[DEBUG] handlePhaseChange -> MAJOR reset (weights & contexts)
[DEBUG] handlePhaseChange -> MAJOR reset (weights & contexts)
[DEBUG] handlePhaseChange -> MAJOR reset (weights & contexts)
[DEBUG] handlePhaseChange -> MAJOR reset (weights & contexts)
[DEBUG] handlePhaseChange -> MAJOR reset (weights & contexts)
[DEBUG] handlePhaseChange -> MAJOR reset (weights & contexts)
[DEBUG] handlePhaseChange -> MAJOR reset (weights & contexts)
[DEBUG] handlePhaseChange -> MAJOR reset (weights & contexts)
[DEBUG] handlePhaseChange -> MAJOR reset (weights & contexts)
[DEBUG] handlePhaseChange -> MAJOR reset (weights & contexts)
[DEBUG] handlePhaseChange -> MAJOR reset (weights & contexts)
[DEBUG] handlePhaseChange -> MAJOR reset (weights & contexts)
[DEBUG] handlePhaseChange -> MAJOR reset (weights & contexts)
[DEBUG] handlePhaseChange -> MAJOR reset (weights & contexts)
[DEBUG] handlePhaseChange -> MAJOR reset (weights & contexts)
[DEBUG] handlePhaseChange -> MAJOR reset (weights & contexts)
[DEBUG] handlePhaseChange -> MAJOR reset (weights & contexts)
[DEBUG] handlePhaseChange -> MAJOR reset (weights & contexts)
[DEBUG] handlePhaseChange -> MAJOR reset (weights & contexts)
[DEBUG] handlePhaseChange -> MAJOR reset (weights & contexts)
[DEBUG] handlePhaseChange -> MAJOR reset (weights & contexts)
[DEBUG] handlePhaseChange -> MAJOR reset (weights & contexts)
[DEBUG] handlePhaseChange -> MAJOR reset (weights & contexts)
[DEBUG] handlePhaseChange -> MAJOR reset (weights & contexts)
[DEBUG] handlePhaseChange -> MAJOR reset (weights & contexts)
[DEBUG] handlePhaseChange -> MAJOR reset (weights & contexts)
[DEBUG] handlePhaseChange -> MAJOR reset (weights & contexts)
[DEBUG] handlePhaseChange -> MAJOR reset (weights & contexts)
[DEBUG] handlePhaseChange -> MAJOR reset (weights & contexts)
[DEBUG] handlePhaseChange -> MAJOR reset (weights & contexts)
[DEBUG] handlePhaseChange -> MAJOR reset (weights & contexts)
[DEBUG] handlePhaseChange -> MAJOR reset (weights & contexts)
Heartbeat CPU  0 instructions:    7000000 cycles:    3258409 heartbeat IPC: 2.14872 cumulative IPC: 2.14829 (Simulation time: 0 hr 0 min 12 sec) 
[DEBUG] handlePhaseChange -> MAJOR reset (weights & contexts)
[DEBUG] handlePhaseChange -> MAJOR reset (weights & contexts)
[DEBUG] handlePhaseChange -> MAJOR reset (weights & contexts)
[DEBUG] handlePhaseChange -> MAJOR reset (weights & contexts)
[DEBUG] handlePhaseChange -> MAJOR reset (weights & contexts)
[DEBUG] handlePhaseChange -> MAJOR reset (weights & contexts)
[DEBUG] handlePhaseChange -> MAJOR reset (weights & contexts)
[DEBUG] handlePhaseChange -> MAJOR reset (weights & contexts)
[DEBUG] handlePhaseChange -> MAJOR reset (weights & contexts)
[DEBUG] handlePhaseChange -> MAJOR reset (weights & contexts)
[DEBUG] handlePhaseChange -> MAJOR reset (weights & contexts)
[DEBUG] handlePhaseChange -> MAJOR reset (weights & contexts)
[DEBUG] handlePhaseChange -> MAJOR reset (weights & contexts)
[DEBUG] handlePhaseChange -> MAJOR reset (weights & contexts)
[DEBUG] handlePhaseChange -> MAJOR reset (weights & contexts)
[DEBUG] handlePhaseChange -> MAJOR reset (weights & contexts)
[DEBUG] handlePhaseChange -> MAJOR reset (weights & contexts)
[DEBUG] handlePhaseChange -> MAJOR reset (weights & contexts)
[DEBUG] handlePhaseChange -> MAJOR reset (weights & contexts)
[DEBUG] handlePhaseChange -> MAJOR reset (weights & contexts)
[DEBUG] handlePhaseChange -> MAJOR reset (weights & contexts)
[DEBUG] handlePhaseChange -> MAJOR reset (weights & contexts)
[DEBUG] handlePhaseChange -> MAJOR reset (weights & contexts)
[DEBUG] handlePhaseChange -> MAJOR reset (weights & contexts)
[DEBUG] handlePhaseChange -> MAJOR reset (weights & contexts)
[DEBUG] handlePhaseChange -> MAJOR reset (weights & contexts)
[DEBUG] handlePhaseChange -> MAJOR reset (weights & contexts)
[DEBUG] handlePhaseChange -> MAJOR reset (weights & contexts)
[DEBUG] handlePhaseChange -> MAJOR reset (weights & contexts)
[DEBUG] handlePhaseChange -> MAJOR reset (weights & contexts)
[DEBUG] handlePhaseChange -> MAJOR reset (weights & contexts)
[DEBUG] handlePhaseChange -> MAJOR reset (weights & contexts)
[DEBUG] handlePhaseChange -> MAJOR reset (weights & contexts)
[DEBUG] handlePhaseChange -> MAJOR reset (weights & contexts)
Heartbeat CPU  0 instructions:    8000000 cycles:    3723820 heartbeat IPC: 2.14864 cumulative IPC: 2.14833 (Simulation time: 0 hr 0 min 14 sec) 
[DEBUG] handlePhaseChange -> MAJOR reset (weights & contexts)
[DEBUG] handlePhaseChange -> MAJOR reset (weights & contexts)
[DEBUG] handlePhaseChange -> MAJOR reset (weights & contexts)
[DEBUG] handlePhaseChange -> MAJOR reset (weights & contexts)
[DEBUG] handlePhaseChange -> MAJOR reset (weights & contexts)
[DEBUG] handlePhaseChange -> MAJOR reset (weights & contexts)
[DEBUG] handlePhaseChange -> MAJOR reset (weights & contexts)
[DEBUG] handlePhaseChange -> MAJOR reset (weights & contexts)
[DEBUG] handlePhaseChange -> MAJOR reset (weights & contexts)
[DEBUG] handlePhaseChange -> MAJOR reset (weights & contexts)
[DEBUG] handlePhaseChange -> MAJOR reset (weights & contexts)
[DEBUG] handlePhaseChange -> MAJOR reset (weights & contexts)
[DEBUG] handlePhaseChange -> MAJOR reset (weights & contexts)
[DEBUG] handlePhaseChange -> MAJOR reset (weights & contexts)
[DEBUG] handlePhaseChange -> MAJOR reset (weights & contexts)
[DEBUG] handlePhaseChange -> MAJOR reset (weights & contexts)
[DEBUG] handlePhaseChange -> MAJOR reset (weights & contexts)
[DEBUG] handlePhaseChange -> MAJOR reset (weights & contexts)
[DEBUG] handlePhaseChange -> MAJOR reset (weights & contexts)
[DEBUG] handlePhaseChange -> MAJOR reset (weights & contexts)
[DEBUG] handlePhaseChange -> MAJOR reset (weights & contexts)
[DEBUG] handlePhaseChange -> MAJOR reset (weights & contexts)
[DEBUG] handlePhaseChange -> MAJOR reset (weights & contexts)
[DEBUG] handlePhaseChange -> MAJOR reset (weights & contexts)
[DEBUG] handlePhaseChange -> MAJOR reset (weights & contexts)
[DEBUG] handlePhaseChange -> MAJOR reset (weights & contexts)
[DEBUG] handlePhaseChange -> MAJOR reset (weights & contexts)
[DEBUG] handlePhaseChange -> MAJOR reset (weights & contexts)
[DEBUG] handlePhaseChange -> MAJOR reset (weights & contexts)
[DEBUG] handlePhaseChange -> MAJOR reset (weights & contexts)
[DEBUG] handlePhaseChange -> MAJOR reset (weights & contexts)
[DEBUG] handlePhaseChange -> MAJOR reset (weights & contexts)
[DEBUG] handlePhaseChange -> MAJOR reset (weights & contexts)
[DEBUG] handlePhaseChange -> MAJOR reset (weights & contexts)
Heartbeat CPU  0 instructions:    9000000 cycles:    4189231 heartbeat IPC: 2.14864 cumulative IPC: 2.14837 (Simulation time: 0 hr 0 min 16 sec) 
[DEBUG] handlePhaseChange -> MAJOR reset (weights & contexts)
[DEBUG] handlePhaseChange -> MAJOR reset (weights & contexts)
[DEBUG] handlePhaseChange -> MAJOR reset (weights & contexts)
[DEBUG] handlePhaseChange -> MAJOR reset (weights & contexts)
[DEBUG] handlePhaseChange -> MAJOR reset (weights & contexts)
[DEBUG] handlePhaseChange -> MAJOR reset (weights & contexts)
[DEBUG] handlePhaseChange -> MAJOR reset (weights & contexts)
[DEBUG] handlePhaseChange -> MAJOR reset (weights & contexts)
[DEBUG] handlePhaseChange -> MAJOR reset (weights & contexts)
[DEBUG] handlePhaseChange -> MAJOR reset (weights & contexts)
[DEBUG] handlePhaseChange -> MAJOR reset (weights & contexts)
[DEBUG] handlePhaseChange -> MAJOR reset (weights & contexts)
[DEBUG] handlePhaseChange -> MAJOR reset (weights & contexts)
[DEBUG] handlePhaseChange -> MAJOR reset (weights & contexts)
[DEBUG] handlePhaseChange -> MAJOR reset (weights & contexts)
[DEBUG] handlePhaseChange -> MAJOR reset (weights & contexts)
[DEBUG] handlePhaseChange -> MAJOR reset (weights & contexts)
[DEBUG] handlePhaseChange -> MAJOR reset (weights & contexts)
[DEBUG] handlePhaseChange -> MAJOR reset (weights & contexts)
[DEBUG] handlePhaseChange -> MAJOR reset (weights & contexts)
[DEBUG] handlePhaseChange -> MAJOR reset (weights & contexts)
[DEBUG] handlePhaseChange -> MAJOR reset (weights & contexts)
[DEBUG] handlePhaseChange -> MAJOR reset (weights & contexts)
[DEBUG] handlePhaseChange -> MAJOR reset (weights & contexts)
[DEBUG] handlePhaseChange -> MAJOR reset (weights & contexts)
[DEBUG] handlePhaseChange -> MAJOR reset (weights & contexts)
[DEBUG] handlePhaseChange -> MAJOR reset (weights & contexts)
[DEBUG] handlePhaseChange -> MAJOR reset (weights & contexts)
[DEBUG] handlePhaseChange -> MAJOR reset (weights & contexts)
[DEBUG] handlePhaseChange -> MAJOR reset (weights & contexts)
[DEBUG] handlePhaseChange -> MAJOR reset (weights & contexts)
[DEBUG] handlePhaseChange -> MAJOR reset (weights & contexts)
Heartbeat CPU  0 instructions:   10000002 cycles:    4654720 heartbeat IPC: 2.14828 cumulative IPC: 2.14836 (Simulation time: 0 hr 0 min 18 sec) 
[DEBUG] handlePhaseChange -> MAJOR reset (weights & contexts)
[DEBUG] handlePhaseChange -> MAJOR reset (weights & contexts)
[DEBUG] handlePhaseChange -> MAJOR reset (weights & contexts)
[DEBUG] handlePhaseChange -> MAJOR reset (weights & contexts)
[DEBUG] handlePhaseChange -> MAJOR reset (weights & contexts)
[DEBUG] handlePhaseChange -> MAJOR reset (weights & contexts)
[DEBUG] handlePhaseChange -> MAJOR reset (weights & contexts)
[DEBUG] handlePhaseChange -> MAJOR reset (weights & contexts)
[DEBUG] handlePhaseChange -> MAJOR reset (weights & contexts)
[DEBUG] handlePhaseChange -> MAJOR reset (weights & contexts)
[DEBUG] handlePhaseChange -> MAJOR reset (weights & contexts)
[DEBUG] handlePhaseChange -> MAJOR reset (weights & contexts)
[DEBUG] handlePhaseChange -> MAJOR reset (weights & contexts)
[DEBUG] handlePhaseChange -> MAJOR reset (weights & contexts)
[DEBUG] handlePhaseChange -> MAJOR reset (weights & contexts)
[DEBUG] handlePhaseChange -> MAJOR reset (weights & contexts)
[DEBUG] handlePhaseChange -> MAJOR reset (weights & contexts)
[DEBUG] handlePhaseChange -> MAJOR reset (weights & contexts)
[DEBUG] handlePhaseChange -> MAJOR reset (weights & contexts)
[DEBUG] handlePhaseChange -> MAJOR reset (weights & contexts)
[DEBUG] handlePhaseChange -> MAJOR reset (weights & contexts)
[DEBUG] handlePhaseChange -> MAJOR reset (weights & contexts)
[DEBUG] handlePhaseChange -> MAJOR reset (weights & contexts)
[DEBUG] handlePhaseChange -> MAJOR reset (weights & contexts)
[DEBUG] handlePhaseChange -> MAJOR reset (weights & contexts)
[DEBUG] handlePhaseChange -> MAJOR reset (weights & contexts)
[DEBUG] handlePhaseChange -> MAJOR reset (weights & contexts)
[DEBUG] handlePhaseChange -> MAJOR reset (weights & contexts)
[DEBUG] handlePhaseChange -> MAJOR reset (weights & contexts)
[DEBUG] handlePhaseChange -> MAJOR reset (weights & contexts)
[DEBUG] handlePhaseChange -> MAJOR reset (weights & contexts)
[DEBUG] handlePhaseChange -> MAJOR reset (weights & contexts)
[DEBUG] handlePhaseChange -> MAJOR reset (weights & contexts)
[DEBUG] handlePhaseChange -> MAJOR reset (weights & contexts)
[DEBUG] handlePhaseChange -> MAJOR reset (weights & contexts)
Heartbeat CPU  0 instructions:   11000001 cycles:    5120107 heartbeat IPC: 2.14875 cumulative IPC: 2.14839 (Simulation time: 0 hr 0 min 20 sec) 
[DEBUG] handlePhaseChange -> MAJOR reset (weights & contexts)
[DEBUG] handlePhaseChange -> MAJOR reset (weights & contexts)
[DEBUG] handlePhaseChange -> MAJOR reset (weights & contexts)
[DEBUG] handlePhaseChange -> MAJOR reset (weights & contexts)
[DEBUG] handlePhaseChange -> MAJOR reset (weights & contexts)
[DEBUG] handlePhaseChange -> MAJOR reset (weights & contexts)
[DEBUG] handlePhaseChange -> MAJOR reset (weights & contexts)
[DEBUG] handlePhaseChange -> MAJOR reset (weights & contexts)
[DEBUG] handlePhaseChange -> MAJOR reset (weights & contexts)
[DEBUG] handlePhaseChange -> MAJOR reset (weights & contexts)
[DEBUG] handlePhaseChange -> MAJOR reset (weights & contexts)
[DEBUG] handlePhaseChange -> MAJOR reset (weights & contexts)
[DEBUG] handlePhaseChange -> MAJOR reset (weights & contexts)
[DEBUG] handlePhaseChange -> MAJOR reset (weights & contexts)
[DEBUG] handlePhaseChange -> MAJOR reset (weights & contexts)
[DEBUG] handlePhaseChange -> MAJOR reset (weights & contexts)
[DEBUG] handlePhaseChange -> MAJOR reset (weights & contexts)
[DEBUG] handlePhaseChange -> MAJOR reset (weights & contexts)
[DEBUG] handlePhaseChange -> MAJOR reset (weights & contexts)
[DEBUG] handlePhaseChange -> MAJOR reset (weights & contexts)
[DEBUG] handlePhaseChange -> MAJOR reset (weights & contexts)
[DEBUG] handlePhaseChange -> MAJOR reset (weights & contexts)
[DEBUG] handlePhaseChange -> MAJOR reset (weights & contexts)
[DEBUG] handlePhaseChange -> MAJOR reset (weights & contexts)
[DEBUG] handlePhaseChange -> MAJOR reset (weights & contexts)
[DEBUG] handlePhaseChange -> MAJOR reset (weights & contexts)
[DEBUG] handlePhaseChange -> MAJOR reset (weights & contexts)
[DEBUG] handlePhaseChange -> MAJOR reset (weights & contexts)
[DEBUG] handlePhaseChange -> MAJOR reset (weights & contexts)
[DEBUG] handlePhaseChange -> MAJOR reset (weights & contexts)
[DEBUG] handlePhaseChange -> MAJOR reset (weights & contexts)
[DEBUG] handlePhaseChange -> MAJOR reset (weights & contexts)
[DEBUG] handlePhaseChange -> MAJOR reset (weights & contexts)
[DEBUG] handlePhaseChange -> MAJOR reset (weights & contexts)
[DEBUG] handlePhaseChange -> MAJOR reset (weights & contexts)
[DEBUG] handlePhaseChange -> MAJOR reset (weights & contexts)
Heartbeat CPU  0 instructions:   12000000 cycles:    5585452 heartbeat IPC: 2.14894 cumulative IPC: 2.14844 (Simulation time: 0 hr 0 min 21 sec) 
[DEBUG] handlePhaseChange -> MAJOR reset (weights & contexts)
[DEBUG] handlePhaseChange -> MAJOR reset (weights & contexts)
[DEBUG] handlePhaseChange -> MAJOR reset (weights & contexts)
[DEBUG] handlePhaseChange -> MAJOR reset (weights & contexts)
[DEBUG] handlePhaseChange -> MAJOR reset (weights & contexts)
[DEBUG] handlePhaseChange -> MAJOR reset (weights & contexts)
[DEBUG] handlePhaseChange -> MAJOR reset (weights & contexts)
[DEBUG] handlePhaseChange -> MAJOR reset (weights & contexts)
[DEBUG] handlePhaseChange -> MAJOR reset (weights & contexts)
[DEBUG] handlePhaseChange -> MAJOR reset (weights & contexts)
[DEBUG] handlePhaseChange -> MAJOR reset (weights & contexts)
[DEBUG] handlePhaseChange -> MAJOR reset (weights & contexts)
[DEBUG] handlePhaseChange -> MAJOR reset (weights & contexts)
[DEBUG] handlePhaseChange -> MAJOR reset (weights & contexts)
[DEBUG] handlePhaseChange -> MAJOR reset (weights & contexts)
[DEBUG] handlePhaseChange -> MAJOR reset (weights & contexts)
[DEBUG] handlePhaseChange -> MAJOR reset (weights & contexts)
[DEBUG] handlePhaseChange -> MAJOR reset (weights & contexts)
[DEBUG] handlePhaseChange -> MAJOR reset (weights & contexts)
[DEBUG] handlePhaseChange -> MAJOR reset (weights & contexts)
[DEBUG] handlePhaseChange -> MAJOR reset (weights & contexts)
[DEBUG] handlePhaseChange -> MAJOR reset (weights & contexts)
[DEBUG] handlePhaseChange -> MAJOR reset (weights & contexts)
[DEBUG] handlePhaseChange -> MAJOR reset (weights & contexts)
Heartbeat CPU  0 instructions:   13000002 cycles:    6050811 heartbeat IPC: 2.14888 cumulative IPC: 2.14847 (Simulation time: 0 hr 0 min 23 sec) 
[DEBUG] handlePhaseChange -> MAJOR reset (weights & contexts)
[DEBUG] handlePhaseChange -> MAJOR reset (weights & contexts)
[DEBUG] handlePhaseChange -> MAJOR reset (weights & contexts)
[DEBUG] handlePhaseChange -> MAJOR reset (weights & contexts)
[DEBUG] handlePhaseChange -> MAJOR reset (weights & contexts)
[DEBUG] handlePhaseChange -> MAJOR reset (weights & contexts)
[DEBUG] handlePhaseChange -> MAJOR reset (weights & contexts)
[DEBUG] handlePhaseChange -> MAJOR reset (weights & contexts)
[DEBUG] handlePhaseChange -> MAJOR reset (weights & contexts)
[DEBUG] handlePhaseChange -> MAJOR reset (weights & contexts)
[DEBUG] handlePhaseChange -> MAJOR reset (weights & contexts)
[DEBUG] handlePhaseChange -> MAJOR reset (weights & contexts)
[DEBUG] handlePhaseChange -> MAJOR reset (weights & contexts)
[DEBUG] handlePhaseChange -> MAJOR reset (weights & contexts)
[DEBUG] handlePhaseChange -> MAJOR reset (weights & contexts)
[DEBUG] handlePhaseChange -> MAJOR reset (weights & contexts)
[DEBUG] handlePhaseChange -> MAJOR reset (weights & contexts)
[DEBUG] handlePhaseChange -> MAJOR reset (weights & contexts)
[DEBUG] handlePhaseChange -> MAJOR reset (weights & contexts)
[DEBUG] handlePhaseChange -> MAJOR reset (weights & contexts)
[DEBUG] handlePhaseChange -> MAJOR reset (weights & contexts)
[DEBUG] handlePhaseChange -> MAJOR reset (weights & contexts)
[DEBUG] handlePhaseChange -> MAJOR reset (weights & contexts)
[DEBUG] handlePhaseChange -> MAJOR reset (weights & contexts)
[DEBUG] handlePhaseChange -> MAJOR reset (weights & contexts)
[DEBUG] handlePhaseChange -> MAJOR reset (weights & contexts)
Heartbeat CPU  0 instructions:   14000001 cycles:    6516298 heartbeat IPC: 2.14829 cumulative IPC: 2.14846 (Simulation time: 0 hr 0 min 25 sec) 
[DEBUG] handlePhaseChange -> MAJOR reset (weights & contexts)
[DEBUG] handlePhaseChange -> MAJOR reset (weights & contexts)
[DEBUG] handlePhaseChange -> MAJOR reset (weights & contexts)
[DEBUG] handlePhaseChange -> MAJOR reset (weights & contexts)
[DEBUG] handlePhaseChange -> MAJOR reset (weights & contexts)
[DEBUG] handlePhaseChange -> MAJOR reset (weights & contexts)
[DEBUG] handlePhaseChange -> MAJOR reset (weights & contexts)
[DEBUG] handlePhaseChange -> MAJOR reset (weights & contexts)
[DEBUG] handlePhaseChange -> MAJOR reset (weights & contexts)
[DEBUG] handlePhaseChange -> MAJOR reset (weights & contexts)
[DEBUG] handlePhaseChange -> MAJOR reset (weights & contexts)
[DEBUG] handlePhaseChange -> MAJOR reset (weights & contexts)
[DEBUG] handlePhaseChange -> MAJOR reset (weights & contexts)
[DEBUG] handlePhaseChange -> MAJOR reset (weights & contexts)
[DEBUG] handlePhaseChange -> MAJOR reset (weights & contexts)
[DEBUG] handlePhaseChange -> MAJOR reset (weights & contexts)
[DEBUG] handlePhaseChange -> MAJOR reset (weights & contexts)
[DEBUG] handlePhaseChange -> MAJOR reset (weights & contexts)
[DEBUG] handlePhaseChange -> MAJOR reset (weights & contexts)
[DEBUG] handlePhaseChange -> MAJOR reset (weights & contexts)
[DEBUG] handlePhaseChange -> MAJOR reset (weights & contexts)
[DEBUG] handlePhaseChange -> MAJOR reset (weights & contexts)
[DEBUG] handlePhaseChange -> MAJOR reset (weights & contexts)
[DEBUG] handlePhaseChange -> MAJOR reset (weights & contexts)
[DEBUG] handlePhaseChange -> MAJOR reset (weights & contexts)
[DEBUG] handlePhaseChange -> MAJOR reset (weights & contexts)
[DEBUG] handlePhaseChange -> MAJOR reset (weights & contexts)
[DEBUG] handlePhaseChange -> MAJOR reset (weights & contexts)
[DEBUG] handlePhaseChange -> MAJOR reset (weights & contexts)
[DEBUG] handlePhaseChange -> MAJOR reset (weights & contexts)
[DEBUG] handlePhaseChange -> MAJOR reset (weights & contexts)
[DEBUG] handlePhaseChange -> MAJOR reset (weights & contexts)
[DEBUG] handlePhaseChange -> MAJOR reset (weights & contexts)
Heartbeat CPU  0 instructions:   15000001 cycles:    6981687 heartbeat IPC: 2.14874 cumulative IPC: 2.14848 (Simulation time: 0 hr 0 min 27 sec) 
[DEBUG] handlePhaseChange -> MAJOR reset (weights & contexts)
[DEBUG] handlePhaseChange -> MAJOR reset (weights & contexts)
[DEBUG] handlePhaseChange -> MAJOR reset (weights & contexts)
[DEBUG] handlePhaseChange -> MAJOR reset (weights & contexts)
[DEBUG] handlePhaseChange -> MAJOR reset (weights & contexts)
[DEBUG] handlePhaseChange -> MAJOR reset (weights & contexts)
[DEBUG] handlePhaseChange -> MAJOR reset (weights & contexts)
[DEBUG] handlePhaseChange -> MAJOR reset (weights & contexts)
[DEBUG] handlePhaseChange -> MAJOR reset (weights & contexts)
[DEBUG] handlePhaseChange -> MAJOR reset (weights & contexts)
[DEBUG] handlePhaseChange -> MAJOR reset (weights & contexts)
[DEBUG] handlePhaseChange -> MAJOR reset (weights & contexts)
[DEBUG] handlePhaseChange -> MAJOR reset (weights & contexts)
[DEBUG] handlePhaseChange -> MAJOR reset (weights & contexts)
[DEBUG] handlePhaseChange -> MAJOR reset (weights & contexts)
[DEBUG] handlePhaseChange -> MAJOR reset (weights & contexts)
[DEBUG] handlePhaseChange -> MAJOR reset (weights & contexts)
[DEBUG] handlePhaseChange -> MAJOR reset (weights & contexts)
[DEBUG] handlePhaseChange -> MAJOR reset (weights & contexts)
[DEBUG] handlePhaseChange -> MAJOR reset (weights & contexts)
[DEBUG] handlePhaseChange -> MAJOR reset (weights & contexts)
[DEBUG] handlePhaseChange -> MAJOR reset (weights & contexts)
[DEBUG] handlePhaseChange -> MAJOR reset (weights & contexts)
[DEBUG] handlePhaseChange -> MAJOR reset (weights & contexts)
[DEBUG] handlePhaseChange -> MAJOR reset (weights & contexts)
Heartbeat CPU  0 instructions:   16000000 cycles:    7447153 heartbeat IPC: 2.14838 cumulative IPC: 2.14847 (Simulation time: 0 hr 0 min 29 sec) 
[DEBUG] handlePhaseChange -> MAJOR reset (weights & contexts)
[DEBUG] handlePhaseChange -> MAJOR reset (weights & contexts)
[DEBUG] handlePhaseChange -> MAJOR reset (weights & contexts)
[DEBUG] handlePhaseChange -> MAJOR reset (weights & contexts)
[DEBUG] handlePhaseChange -> MAJOR reset (weights & contexts)
[DEBUG] handlePhaseChange -> MAJOR reset (weights & contexts)
[DEBUG] handlePhaseChange -> MAJOR reset (weights & contexts)
[DEBUG] handlePhaseChange -> MAJOR reset (weights & contexts)
[DEBUG] handlePhaseChange -> MAJOR reset (weights & contexts)
[DEBUG] handlePhaseChange -> MAJOR reset (weights & contexts)
[DEBUG] handlePhaseChange -> MAJOR reset (weights & contexts)
[DEBUG] handlePhaseChange -> MAJOR reset (weights & contexts)
[DEBUG] handlePhaseChange -> MAJOR reset (weights & contexts)
[DEBUG] handlePhaseChange -> MAJOR reset (weights & contexts)
[DEBUG] handlePhaseChange -> MAJOR reset (weights & contexts)
[DEBUG] handlePhaseChange -> MAJOR reset (weights & contexts)
[DEBUG] handlePhaseChange -> MAJOR reset (weights & contexts)
[DEBUG] handlePhaseChange -> MAJOR reset (weights & contexts)
[DEBUG] handlePhaseChange -> MAJOR reset (weights & contexts)
[DEBUG] handlePhaseChange -> MAJOR reset (weights & contexts)
[DEBUG] handlePhaseChange -> MAJOR reset (weights & contexts)
[DEBUG] handlePhaseChange -> MAJOR reset (weights & contexts)
[DEBUG] handlePhaseChange -> MAJOR reset (weights & contexts)
[DEBUG] handlePhaseChange -> MAJOR reset (weights & contexts)
[DEBUG] handlePhaseChange -> MAJOR reset (weights & contexts)
[DEBUG] handlePhaseChange -> MAJOR reset (weights & contexts)
[DEBUG] handlePhaseChange -> MAJOR reset (weights & contexts)
Heartbeat CPU  0 instructions:   17000000 cycles:    7912505 heartbeat IPC: 2.14891 cumulative IPC: 2.14850 (Simulation time: 0 hr 0 min 31 sec) 
[DEBUG] handlePhaseChange -> MAJOR reset (weights & contexts)
[DEBUG] handlePhaseChange -> MAJOR reset (weights & contexts)
[DEBUG] handlePhaseChange -> MAJOR reset (weights & contexts)
[DEBUG] handlePhaseChange -> MAJOR reset (weights & contexts)
[DEBUG] handlePhaseChange -> MAJOR reset (weights & contexts)
[DEBUG] handlePhaseChange -> MAJOR reset (weights & contexts)
[DEBUG] handlePhaseChange -> MAJOR reset (weights & contexts)
[DEBUG] handlePhaseChange -> MAJOR reset (weights & contexts)
[DEBUG] handlePhaseChange -> MAJOR reset (weights & contexts)
[DEBUG] handlePhaseChange -> MAJOR reset (weights & contexts)
[DEBUG] handlePhaseChange -> MAJOR reset (weights & contexts)
[DEBUG] handlePhaseChange -> MAJOR reset (weights & contexts)
[DEBUG] handlePhaseChange -> MAJOR reset (weights & contexts)
[DEBUG] handlePhaseChange -> MAJOR reset (weights & contexts)
[DEBUG] handlePhaseChange -> MAJOR reset (weights & contexts)
[DEBUG] handlePhaseChange -> MAJOR reset (weights & contexts)
[DEBUG] handlePhaseChange -> MAJOR reset (weights & contexts)
[DEBUG] handlePhaseChange -> MAJOR reset (weights & contexts)
[DEBUG] handlePhaseChange -> MAJOR reset (weights & contexts)
[DEBUG] handlePhaseChange -> MAJOR reset (weights & contexts)
[DEBUG] handlePhaseChange -> MAJOR reset (weights & contexts)
[DEBUG] handlePhaseChange -> MAJOR reset (weights & contexts)
[DEBUG] handlePhaseChange -> MAJOR reset (weights & contexts)
[DEBUG] handlePhaseChange -> MAJOR reset (weights & contexts)
[DEBUG] handlePhaseChange -> MAJOR reset (weights & contexts)
[DEBUG] handlePhaseChange -> MAJOR reset (weights & contexts)
[DEBUG] handlePhaseChange -> MAJOR reset (weights & contexts)
[DEBUG] handlePhaseChange -> MAJOR reset (weights & contexts)
Heartbeat CPU  0 instructions:   18000000 cycles:    8377990 heartbeat IPC: 2.14830 cumulative IPC: 2.14849 (Simulation time: 0 hr 0 min 32 sec) 
[DEBUG] handlePhaseChange -> MAJOR reset (weights & contexts)
[DEBUG] handlePhaseChange -> MAJOR reset (weights & contexts)
[DEBUG] handlePhaseChange -> MAJOR reset (weights & contexts)
[DEBUG] handlePhaseChange -> MAJOR reset (weights & contexts)
[DEBUG] handlePhaseChange -> MAJOR reset (weights & contexts)
[DEBUG] handlePhaseChange -> MAJOR reset (weights & contexts)
[DEBUG] handlePhaseChange -> MAJOR reset (weights & contexts)
[DEBUG] handlePhaseChange -> MAJOR reset (weights & contexts)
[DEBUG] handlePhaseChange -> MAJOR reset (weights & contexts)
[DEBUG] handlePhaseChange -> MAJOR reset (weights & contexts)
[DEBUG] handlePhaseChange -> MAJOR reset (weights & contexts)
[DEBUG] handlePhaseChange -> MAJOR reset (weights & contexts)
[DEBUG] handlePhaseChange -> MAJOR reset (weights & contexts)
[DEBUG] handlePhaseChange -> MAJOR reset (weights & contexts)
[DEBUG] handlePhaseChange -> MAJOR reset (weights & contexts)
[DEBUG] handlePhaseChange -> MAJOR reset (weights & contexts)
[DEBUG] handlePhaseChange -> MAJOR reset (weights & contexts)
[DEBUG] handlePhaseChange -> MAJOR reset (weights & contexts)
[DEBUG] handlePhaseChange -> MAJOR reset (weights & contexts)
[DEBUG] handlePhaseChange -> MAJOR reset (weights & contexts)
[DEBUG] handlePhaseChange -> MAJOR reset (weights & contexts)
[DEBUG] handlePhaseChange -> MAJOR reset (weights & contexts)
[DEBUG] handlePhaseChange -> MAJOR reset (weights & contexts)
[DEBUG] handlePhaseChange -> MAJOR reset (weights & contexts)
[DEBUG] handlePhaseChange -> MAJOR reset (weights & contexts)
[DEBUG] handlePhaseChange -> MAJOR reset (weights & contexts)
[DEBUG] handlePhaseChange -> MAJOR reset (weights & contexts)
[DEBUG] handlePhaseChange -> MAJOR reset (weights & contexts)
[DEBUG] handlePhaseChange -> MAJOR reset (weights & contexts)
[DEBUG] handlePhaseChange -> MAJOR reset (weights & contexts)
[DEBUG] handlePhaseChange -> MAJOR reset (weights & contexts)
Heartbeat CPU  0 instructions:   19000003 cycles:    8843320 heartbeat IPC: 2.14902 cumulative IPC: 2.14851 (Simulation time: 0 hr 0 min 34 sec) 
[DEBUG] handlePhaseChange -> MAJOR reset (weights & contexts)
[DEBUG] handlePhaseChange -> MAJOR reset (weights & contexts)
[DEBUG] handlePhaseChange -> MAJOR reset (weights & contexts)
[DEBUG] handlePhaseChange -> MAJOR reset (weights & contexts)
[DEBUG] handlePhaseChange -> MAJOR reset (weights & contexts)
[DEBUG] handlePhaseChange -> MAJOR reset (weights & contexts)
[DEBUG] handlePhaseChange -> MAJOR reset (weights & contexts)
[DEBUG] handlePhaseChange -> MAJOR reset (weights & contexts)
[DEBUG] handlePhaseChange -> MAJOR reset (weights & contexts)
[DEBUG] handlePhaseChange -> MAJOR reset (weights & contexts)
[DEBUG] handlePhaseChange -> MAJOR reset (weights & contexts)
[DEBUG] handlePhaseChange -> MAJOR reset (weights & contexts)
[DEBUG] handlePhaseChange -> MAJOR reset (weights & contexts)
[DEBUG] handlePhaseChange -> MAJOR reset (weights & contexts)
[DEBUG] handlePhaseChange -> MAJOR reset (weights & contexts)
[DEBUG] handlePhaseChange -> MAJOR reset (weights & contexts)
[DEBUG] handlePhaseChange -> MAJOR reset (weights & contexts)
[DEBUG] handlePhaseChange -> MAJOR reset (weights & contexts)
[DEBUG] handlePhaseChange -> MAJOR reset (weights & contexts)
[DEBUG] handlePhaseChange -> MAJOR reset (weights & contexts)
[DEBUG] handlePhaseChange -> MAJOR reset (weights & contexts)
[DEBUG] handlePhaseChange -> MAJOR reset (weights & contexts)
[DEBUG] handlePhaseChange -> MAJOR reset (weights & contexts)
[DEBUG] handlePhaseChange -> MAJOR reset (weights & contexts)
[DEBUG] handlePhaseChange -> MAJOR reset (weights & contexts)
[DEBUG] handlePhaseChange -> MAJOR reset (weights & contexts)
[DEBUG] handlePhaseChange -> MAJOR reset (weights & contexts)
Heartbeat CPU  0 instructions:   20000000 cycles:    9308822 heartbeat IPC: 2.14821 cumulative IPC: 2.14850 (Simulation time: 0 hr 0 min 36 sec) 
[DEBUG] handlePhaseChange -> MAJOR reset (weights & contexts)
[DEBUG] handlePhaseChange -> MAJOR reset (weights & contexts)
[DEBUG] handlePhaseChange -> MAJOR reset (weights & contexts)
[DEBUG] handlePhaseChange -> MAJOR reset (weights & contexts)
[DEBUG] handlePhaseChange -> MAJOR reset (weights & contexts)
[DEBUG] handlePhaseChange -> MAJOR reset (weights & contexts)
[DEBUG] handlePhaseChange -> MAJOR reset (weights & contexts)
[DEBUG] handlePhaseChange -> MAJOR reset (weights & contexts)
[DEBUG] handlePhaseChange -> MAJOR reset (weights & contexts)
[DEBUG] handlePhaseChange -> MAJOR reset (weights & contexts)
[DEBUG] handlePhaseChange -> MAJOR reset (weights & contexts)
[DEBUG] handlePhaseChange -> MAJOR reset (weights & contexts)
[DEBUG] handlePhaseChange -> MAJOR reset (weights & contexts)
[DEBUG] handlePhaseChange -> MAJOR reset (weights & contexts)
[DEBUG] handlePhaseChange -> MAJOR reset (weights & contexts)
[DEBUG] handlePhaseChange -> MAJOR reset (weights & contexts)
[DEBUG] handlePhaseChange -> MAJOR reset (weights & contexts)
[DEBUG] handlePhaseChange -> MAJOR reset (weights & contexts)
[DEBUG] handlePhaseChange -> MAJOR reset (weights & contexts)
[DEBUG] handlePhaseChange -> MAJOR reset (weights & contexts)
[DEBUG] handlePhaseChange -> MAJOR reset (weights & contexts)
[DEBUG] handlePhaseChange -> MAJOR reset (weights & contexts)
[DEBUG] handlePhaseChange -> MAJOR reset (weights & contexts)
[DEBUG] handlePhaseChange -> MAJOR reset (weights & contexts)
[DEBUG] handlePhaseChange -> MAJOR reset (weights & contexts)
[DEBUG] handlePhaseChange -> MAJOR reset (weights & contexts)
Heartbeat CPU  0 instructions:   21000002 cycles:    9774181 heartbeat IPC: 2.14888 cumulative IPC: 2.14852 (Simulation time: 0 hr 0 min 38 sec) 
[DEBUG] handlePhaseChange -> MAJOR reset (weights & contexts)
[DEBUG] handlePhaseChange -> MAJOR reset (weights & contexts)
[DEBUG] handlePhaseChange -> MAJOR reset (weights & contexts)
[DEBUG] handlePhaseChange -> MAJOR reset (weights & contexts)
[DEBUG] handlePhaseChange -> MAJOR reset (weights & contexts)
[DEBUG] handlePhaseChange -> MAJOR reset (weights & contexts)
[DEBUG] handlePhaseChange -> MAJOR reset (weights & contexts)
[DEBUG] handlePhaseChange -> MAJOR reset (weights & contexts)
[DEBUG] handlePhaseChange -> MAJOR reset (weights & contexts)
[DEBUG] handlePhaseChange -> MAJOR reset (weights & contexts)
[DEBUG] handlePhaseChange -> MAJOR reset (weights & contexts)
[DEBUG] handlePhaseChange -> MAJOR reset (weights & contexts)
[DEBUG] handlePhaseChange -> MAJOR reset (weights & contexts)
[DEBUG] handlePhaseChange -> MAJOR reset (weights & contexts)
[DEBUG] handlePhaseChange -> MAJOR reset (weights & contexts)
[DEBUG] handlePhaseChange -> MAJOR reset (weights & contexts)
[DEBUG] handlePhaseChange -> MAJOR reset (weights & contexts)
[DEBUG] handlePhaseChange -> MAJOR reset (weights & contexts)
[DEBUG] handlePhaseChange -> MAJOR reset (weights & contexts)
[DEBUG] handlePhaseChange -> MAJOR reset (weights & contexts)
[DEBUG] handlePhaseChange -> MAJOR reset (weights & contexts)
[DEBUG] handlePhaseChange -> MAJOR reset (weights & contexts)
[DEBUG] handlePhaseChange -> MAJOR reset (weights & contexts)
[DEBUG] handlePhaseChange -> MAJOR reset (weights & contexts)
[DEBUG] handlePhaseChange -> MAJOR reset (weights & contexts)
Heartbeat CPU  0 instructions:   22000001 cycles:   10239676 heartbeat IPC: 2.14825 cumulative IPC: 2.14851 (Simulation time: 0 hr 0 min 39 sec) 
[DEBUG] handlePhaseChange -> MAJOR reset (weights & contexts)
[DEBUG] handlePhaseChange -> MAJOR reset (weights & contexts)
[DEBUG] handlePhaseChange -> MAJOR reset (weights & contexts)
[DEBUG] handlePhaseChange -> MAJOR reset (weights & contexts)
[DEBUG] handlePhaseChange -> MAJOR reset (weights & contexts)
[DEBUG] handlePhaseChange -> MAJOR reset (weights & contexts)
[DEBUG] handlePhaseChange -> MAJOR reset (weights & contexts)
[DEBUG] handlePhaseChange -> MAJOR reset (weights & contexts)
[DEBUG] handlePhaseChange -> MAJOR reset (weights & contexts)
[DEBUG] handlePhaseChange -> MAJOR reset (weights & contexts)
[DEBUG] handlePhaseChange -> MAJOR reset (weights & contexts)
[DEBUG] handlePhaseChange -> MAJOR reset (weights & contexts)
[DEBUG] handlePhaseChange -> MAJOR reset (weights & contexts)
[DEBUG] handlePhaseChange -> MAJOR reset (weights & contexts)
[DEBUG] handlePhaseChange -> MAJOR reset (weights & contexts)
[DEBUG] handlePhaseChange -> MAJOR reset (weights & contexts)
[DEBUG] handlePhaseChange -> MAJOR reset (weights & contexts)
[DEBUG] handlePhaseChange -> MAJOR reset (weights & contexts)
[DEBUG] handlePhaseChange -> MAJOR reset (weights & contexts)
[DEBUG] handlePhaseChange -> MAJOR reset (weights & contexts)
[DEBUG] handlePhaseChange -> MAJOR reset (weights & contexts)
[DEBUG] handlePhaseChange -> MAJOR reset (weights & contexts)
[DEBUG] handlePhaseChange -> MAJOR reset (weights & contexts)
[DEBUG] handlePhaseChange -> MAJOR reset (weights & contexts)
[DEBUG] handlePhaseChange -> MAJOR reset (weights & contexts)
[DEBUG] handlePhaseChange -> MAJOR reset (weights & contexts)
Heartbeat CPU  0 instructions:   23000000 cycles:   10705031 heartbeat IPC: 2.14890 cumulative IPC: 2.14852 (Simulation time: 0 hr 0 min 41 sec) 
[DEBUG] handlePhaseChange -> MAJOR reset (weights & contexts)
[DEBUG] handlePhaseChange -> MAJOR reset (weights & contexts)
[DEBUG] handlePhaseChange -> MAJOR reset (weights & contexts)
[DEBUG] handlePhaseChange -> MAJOR reset (weights & contexts)
[DEBUG] handlePhaseChange -> MAJOR reset (weights & contexts)
[DEBUG] handlePhaseChange -> MAJOR reset (weights & contexts)
[DEBUG] handlePhaseChange -> MAJOR reset (weights & contexts)
[DEBUG] handlePhaseChange -> MAJOR reset (weights & contexts)
[DEBUG] handlePhaseChange -> MAJOR reset (weights & contexts)
[DEBUG] handlePhaseChange -> MAJOR reset (weights & contexts)
[DEBUG] handlePhaseChange -> MAJOR reset (weights & contexts)
[DEBUG] handlePhaseChange -> MAJOR reset (weights & contexts)
[DEBUG] handlePhaseChange -> MAJOR reset (weights & contexts)
[DEBUG] handlePhaseChange -> MAJOR reset (weights & contexts)
[DEBUG] handlePhaseChange -> MAJOR reset (weights & contexts)
[DEBUG] handlePhaseChange -> MAJOR reset (weights & contexts)
[DEBUG] handlePhaseChange -> MAJOR reset (weights & contexts)
[DEBUG] handlePhaseChange -> MAJOR reset (weights & contexts)
[DEBUG] handlePhaseChange -> MAJOR reset (weights & contexts)
[DEBUG] handlePhaseChange -> MAJOR reset (weights & contexts)
[DEBUG] handlePhaseChange -> MAJOR reset (weights & contexts)
[DEBUG] handlePhaseChange -> MAJOR reset (weights & contexts)
[DEBUG] handlePhaseChange -> MAJOR reset (weights & contexts)
[DEBUG] handlePhaseChange -> MAJOR reset (weights & contexts)
[DEBUG] handlePhaseChange -> MAJOR reset (weights & contexts)
[DEBUG] handlePhaseChange -> MAJOR reset (weights & contexts)
[DEBUG] handlePhaseChange -> MAJOR reset (weights & contexts)
[DEBUG] handlePhaseChange -> MAJOR reset (weights & contexts)
[DEBUG] handlePhaseChange -> MAJOR reset (weights & contexts)
[DEBUG] handlePhaseChange -> MAJOR reset (weights & contexts)
[DEBUG] handlePhaseChange -> MAJOR reset (weights & contexts)
[DEBUG] handlePhaseChange -> MAJOR reset (weights & contexts)
[DEBUG] handlePhaseChange -> MAJOR reset (weights & contexts)
[DEBUG] handlePhaseChange -> MAJOR reset (weights & contexts)
Heartbeat CPU  0 instructions:   24000000 cycles:   11170471 heartbeat IPC: 2.14850 cumulative IPC: 2.14852 (Simulation time: 0 hr 0 min 43 sec) 
[DEBUG] handlePhaseChange -> MAJOR reset (weights & contexts)
[DEBUG] handlePhaseChange -> MAJOR reset (weights & contexts)
[DEBUG] handlePhaseChange -> MAJOR reset (weights & contexts)
[DEBUG] handlePhaseChange -> MAJOR reset (weights & contexts)
[DEBUG] handlePhaseChange -> MAJOR reset (weights & contexts)
[DEBUG] handlePhaseChange -> MAJOR reset (weights & contexts)
[DEBUG] handlePhaseChange -> MAJOR reset (weights & contexts)
[DEBUG] handlePhaseChange -> MAJOR reset (weights & contexts)
[DEBUG] handlePhaseChange -> MAJOR reset (weights & contexts)
[DEBUG] handlePhaseChange -> MAJOR reset (weights & contexts)
[DEBUG] handlePhaseChange -> MAJOR reset (weights & contexts)
[DEBUG] handlePhaseChange -> MAJOR reset (weights & contexts)
[DEBUG] handlePhaseChange -> MAJOR reset (weights & contexts)
[DEBUG] handlePhaseChange -> MAJOR reset (weights & contexts)
[DEBUG] handlePhaseChange -> MAJOR reset (weights & contexts)
[DEBUG] handlePhaseChange -> MAJOR reset (weights & contexts)
[DEBUG] handlePhaseChange -> MAJOR reset (weights & contexts)
[DEBUG] handlePhaseChange -> MAJOR reset (weights & contexts)
[DEBUG] handlePhaseChange -> MAJOR reset (weights & contexts)
[DEBUG] handlePhaseChange -> MAJOR reset (weights & contexts)
[DEBUG] handlePhaseChange -> MAJOR reset (weights & contexts)
[DEBUG] handlePhaseChange -> MAJOR reset (weights & contexts)
[DEBUG] handlePhaseChange -> MAJOR reset (weights & contexts)
[DEBUG] handlePhaseChange -> MAJOR reset (weights & contexts)
[DEBUG] handlePhaseChange -> MAJOR reset (weights & contexts)
[DEBUG] handlePhaseChange -> MAJOR reset (weights & contexts)
[DEBUG] handlePhaseChange -> MAJOR reset (weights & contexts)
[DEBUG] handlePhaseChange -> MAJOR reset (weights & contexts)
[DEBUG] handlePhaseChange -> MAJOR reset (weights & contexts)
[DEBUG] handlePhaseChange -> MAJOR reset (weights & contexts)
[DEBUG] handlePhaseChange -> MAJOR reset (weights & contexts)
[DEBUG] handlePhaseChange -> MAJOR reset (weights & contexts)
[DEBUG] handlePhaseChange -> MAJOR reset (weights & contexts)
[DEBUG] handlePhaseChange -> MAJOR reset (weights & contexts)
Heartbeat CPU  0 instructions:   25000003 cycles:   11635864 heartbeat IPC: 2.14873 cumulative IPC: 2.14853 (Simulation time: 0 hr 0 min 45 sec) 
[DEBUG] handlePhaseChange -> MAJOR reset (weights & contexts)
[DEBUG] handlePhaseChange -> MAJOR reset (weights & contexts)
[DEBUG] handlePhaseChange -> MAJOR reset (weights & contexts)
[DEBUG] handlePhaseChange -> MAJOR reset (weights & contexts)
[DEBUG] handlePhaseChange -> MAJOR reset (weights & contexts)
[DEBUG] handlePhaseChange -> MAJOR reset (weights & contexts)
[DEBUG] handlePhaseChange -> MAJOR reset (weights & contexts)
[DEBUG] handlePhaseChange -> MAJOR reset (weights & contexts)
[DEBUG] handlePhaseChange -> MAJOR reset (weights & contexts)
[DEBUG] handlePhaseChange -> MAJOR reset (weights & contexts)
[DEBUG] handlePhaseChange -> MAJOR reset (weights & contexts)
[DEBUG] handlePhaseChange -> MAJOR reset (weights & contexts)
[DEBUG] handlePhaseChange -> MAJOR reset (weights & contexts)
[DEBUG] handlePhaseChange -> MAJOR reset (weights & contexts)
[DEBUG] handlePhaseChange -> MAJOR reset (weights & contexts)
[DEBUG] handlePhaseChange -> MAJOR reset (weights & contexts)
[DEBUG] handlePhaseChange -> MAJOR reset (weights & contexts)
[DEBUG] handlePhaseChange -> MAJOR reset (weights & contexts)
[DEBUG] handlePhaseChange -> MAJOR reset (weights & contexts)
[DEBUG] handlePhaseChange -> MAJOR reset (weights & contexts)
[DEBUG] handlePhaseChange -> MAJOR reset (weights & contexts)
[DEBUG] handlePhaseChange -> MAJOR reset (weights & contexts)
[DEBUG] handlePhaseChange -> MAJOR reset (weights & contexts)
[DEBUG] handlePhaseChange -> MAJOR reset (weights & contexts)
[DEBUG] handlePhaseChange -> MAJOR reset (weights & contexts)
[DEBUG] handlePhaseChange -> MAJOR reset (weights & contexts)
[DEBUG] handlePhaseChange -> MAJOR reset (weights & contexts)
[DEBUG] handlePhaseChange -> MAJOR reset (weights & contexts)
[DEBUG] handlePhaseChange -> MAJOR reset (weights & contexts)
[DEBUG] handlePhaseChange -> MAJOR reset (weights & contexts)
[DEBUG] handlePhaseChange -> MAJOR reset (weights & contexts)
[DEBUG] handlePhaseChange -> MAJOR reset (weights & contexts)
[DEBUG] handlePhaseChange -> MAJOR reset (weights & contexts)
[DEBUG] handlePhaseChange -> MAJOR reset (weights & contexts)
[DEBUG] handlePhaseChange -> MAJOR reset (weights & contexts)
Heartbeat CPU  0 instructions:   26000003 cycles:   12101309 heartbeat IPC: 2.14848 cumulative IPC: 2.14853 (Simulation time: 0 hr 0 min 47 sec) 
[DEBUG] handlePhaseChange -> MAJOR reset (weights & contexts)
[DEBUG] handlePhaseChange -> MAJOR reset (weights & contexts)
[DEBUG] handlePhaseChange -> MAJOR reset (weights & contexts)
[DEBUG] handlePhaseChange -> MAJOR reset (weights & contexts)
[DEBUG] handlePhaseChange -> MAJOR reset (weights & contexts)
[DEBUG] handlePhaseChange -> MAJOR reset (weights & contexts)
[DEBUG] handlePhaseChange -> MAJOR reset (weights & contexts)
[DEBUG] handlePhaseChange -> MAJOR reset (weights & contexts)
[DEBUG] handlePhaseChange -> MAJOR reset (weights & contexts)
[DEBUG] handlePhaseChange -> MAJOR reset (weights & contexts)
[DEBUG] handlePhaseChange -> MAJOR reset (weights & contexts)
[DEBUG] handlePhaseChange -> MAJOR reset (weights & contexts)
[DEBUG] handlePhaseChange -> MAJOR reset (weights & contexts)
[DEBUG] handlePhaseChange -> MAJOR reset (weights & contexts)
[DEBUG] handlePhaseChange -> MAJOR reset (weights & contexts)
[DEBUG] handlePhaseChange -> MAJOR reset (weights & contexts)
[DEBUG] handlePhaseChange -> MAJOR reset (weights & contexts)
[DEBUG] handlePhaseChange -> MAJOR reset (weights & contexts)
[DEBUG] handlePhaseChange -> MAJOR reset (weights & contexts)
[DEBUG] handlePhaseChange -> MAJOR reset (weights & contexts)
[DEBUG] handlePhaseChange -> MAJOR reset (weights & contexts)
[DEBUG] handlePhaseChange -> MAJOR reset (weights & contexts)
[DEBUG] handlePhaseChange -> MAJOR reset (weights & contexts)
[DEBUG] handlePhaseChange -> MAJOR reset (weights & contexts)
[DEBUG] handlePhaseChange -> MAJOR reset (weights & contexts)
[DEBUG] handlePhaseChange -> MAJOR reset (weights & contexts)
[DEBUG] handlePhaseChange -> MAJOR reset (weights & contexts)
[DEBUG] handlePhaseChange -> MAJOR reset (weights & contexts)
[DEBUG] handlePhaseChange -> MAJOR reset (weights & contexts)
[DEBUG] handlePhaseChange -> MAJOR reset (weights & contexts)
[DEBUG] handlePhaseChange -> MAJOR reset (weights & contexts)
[DEBUG] handlePhaseChange -> MAJOR reset (weights & contexts)
[DEBUG] handlePhaseChange -> MAJOR reset (weights & contexts)
[DEBUG] handlePhaseChange -> MAJOR reset (weights & contexts)
[DEBUG] handlePhaseChange -> MAJOR reset (weights & contexts)
[DEBUG] handlePhaseChange -> MAJOR reset (weights & contexts)
Heartbeat CPU  0 instructions:   27000000 cycles:   12566621 heartbeat IPC: 2.14909 cumulative IPC: 2.14855 (Simulation time: 0 hr 0 min 48 sec) 
[DEBUG] handlePhaseChange -> MAJOR reset (weights & contexts)
[DEBUG] handlePhaseChange -> MAJOR reset (weights & contexts)
[DEBUG] handlePhaseChange -> MAJOR reset (weights & contexts)
[DEBUG] handlePhaseChange -> MAJOR reset (weights & contexts)
[DEBUG] handlePhaseChange -> MAJOR reset (weights & contexts)
[DEBUG] handlePhaseChange -> MAJOR reset (weights & contexts)
[DEBUG] handlePhaseChange -> MAJOR reset (weights & contexts)
[DEBUG] handlePhaseChange -> MAJOR reset (weights & contexts)
[DEBUG] handlePhaseChange -> MAJOR reset (weights & contexts)
[DEBUG] handlePhaseChange -> MAJOR reset (weights & contexts)
[DEBUG] handlePhaseChange -> MAJOR reset (weights & contexts)
[DEBUG] handlePhaseChange -> MAJOR reset (weights & contexts)
[DEBUG] handlePhaseChange -> MAJOR reset (weights & contexts)
[DEBUG] handlePhaseChange -> MAJOR reset (weights & contexts)
[DEBUG] handlePhaseChange -> MAJOR reset (weights & contexts)
[DEBUG] handlePhaseChange -> MAJOR reset (weights & contexts)
[DEBUG] handlePhaseChange -> MAJOR reset (weights & contexts)
[DEBUG] handlePhaseChange -> MAJOR reset (weights & contexts)
[DEBUG] handlePhaseChange -> MAJOR reset (weights & contexts)
[DEBUG] handlePhaseChange -> MAJOR reset (weights & contexts)
[DEBUG] handlePhaseChange -> MAJOR reset (weights & contexts)
[DEBUG] handlePhaseChange -> MAJOR reset (weights & contexts)
[DEBUG] handlePhaseChange -> MAJOR reset (weights & contexts)
[DEBUG] handlePhaseChange -> MAJOR reset (weights & contexts)
[DEBUG] handlePhaseChange -> MAJOR reset (weights & contexts)
[DEBUG] handlePhaseChange -> MAJOR reset (weights & contexts)
[DEBUG] handlePhaseChange -> MAJOR reset (weights & contexts)
[DEBUG] handlePhaseChange -> MAJOR reset (weights & contexts)
[DEBUG] handlePhaseChange -> MAJOR reset (weights & contexts)
[DEBUG] handlePhaseChange -> MAJOR reset (weights & contexts)
[DEBUG] handlePhaseChange -> MAJOR reset (weights & contexts)
[DEBUG] handlePhaseChange -> MAJOR reset (weights & contexts)
Heartbeat CPU  0 instructions:   28000000 cycles:   13032032 heartbeat IPC: 2.14864 cumulative IPC: 2.14855 (Simulation time: 0 hr 0 min 50 sec) 
[DEBUG] handlePhaseChange -> MAJOR reset (weights & contexts)
[DEBUG] handlePhaseChange -> MAJOR reset (weights & contexts)
[DEBUG] handlePhaseChange -> MAJOR reset (weights & contexts)
[DEBUG] handlePhaseChange -> MAJOR reset (weights & contexts)
[DEBUG] handlePhaseChange -> MAJOR reset (weights & contexts)
[DEBUG] handlePhaseChange -> MAJOR reset (weights & contexts)
[DEBUG] handlePhaseChange -> MAJOR reset (weights & contexts)
[DEBUG] handlePhaseChange -> MAJOR reset (weights & contexts)
[DEBUG] handlePhaseChange -> MAJOR reset (weights & contexts)
[DEBUG] handlePhaseChange -> MAJOR reset (weights & contexts)
[DEBUG] handlePhaseChange -> MAJOR reset (weights & contexts)
[DEBUG] handlePhaseChange -> MAJOR reset (weights & contexts)
[DEBUG] handlePhaseChange -> MAJOR reset (weights & contexts)
[DEBUG] handlePhaseChange -> MAJOR reset (weights & contexts)
[DEBUG] handlePhaseChange -> MAJOR reset (weights & contexts)
[DEBUG] handlePhaseChange -> MAJOR reset (weights & contexts)
[DEBUG] handlePhaseChange -> MAJOR reset (weights & contexts)
[DEBUG] handlePhaseChange -> MAJOR reset (weights & contexts)
[DEBUG] handlePhaseChange -> MAJOR reset (weights & contexts)
[DEBUG] handlePhaseChange -> MAJOR reset (weights & contexts)
[DEBUG] handlePhaseChange -> MAJOR reset (weights & contexts)
[DEBUG] handlePhaseChange -> MAJOR reset (weights & contexts)
[DEBUG] handlePhaseChange -> MAJOR reset (weights & contexts)
[DEBUG] handlePhaseChange -> MAJOR reset (weights & contexts)
[DEBUG] handlePhaseChange -> MAJOR reset (weights & contexts)
[DEBUG] handlePhaseChange -> MAJOR reset (weights & contexts)
[DEBUG] handlePhaseChange -> MAJOR reset (weights & contexts)
[DEBUG] handlePhaseChange -> MAJOR reset (weights & contexts)
[DEBUG] handlePhaseChange -> MAJOR reset (weights & contexts)
[DEBUG] handlePhaseChange -> MAJOR reset (weights & contexts)
[DEBUG] handlePhaseChange -> MAJOR reset (weights & contexts)
[DEBUG] handlePhaseChange -> MAJOR reset (weights & contexts)
[DEBUG] handlePhaseChange -> MAJOR reset (weights & contexts)
[DEBUG] handlePhaseChange -> MAJOR reset (weights & contexts)
[DEBUG] handlePhaseChange -> MAJOR reset (weights & contexts)
Heartbeat CPU  0 instructions:   29000000 cycles:   13497457 heartbeat IPC: 2.14857 cumulative IPC: 2.14855 (Simulation time: 0 hr 0 min 52 sec) 
[DEBUG] handlePhaseChange -> MAJOR reset (weights & contexts)
[DEBUG] handlePhaseChange -> MAJOR reset (weights & contexts)
[DEBUG] handlePhaseChange -> MAJOR reset (weights & contexts)
[DEBUG] handlePhaseChange -> MAJOR reset (weights & contexts)
[DEBUG] handlePhaseChange -> MAJOR reset (weights & contexts)
[DEBUG] handlePhaseChange -> MAJOR reset (weights & contexts)
[DEBUG] handlePhaseChange -> MAJOR reset (weights & contexts)
[DEBUG] handlePhaseChange -> MAJOR reset (weights & contexts)
[DEBUG] handlePhaseChange -> MAJOR reset (weights & contexts)
[DEBUG] handlePhaseChange -> MAJOR reset (weights & contexts)
[DEBUG] handlePhaseChange -> MAJOR reset (weights & contexts)
[DEBUG] handlePhaseChange -> MAJOR reset (weights & contexts)
[DEBUG] handlePhaseChange -> MAJOR reset (weights & contexts)
[DEBUG] handlePhaseChange -> MAJOR reset (weights & contexts)
[DEBUG] handlePhaseChange -> MAJOR reset (weights & contexts)
[DEBUG] handlePhaseChange -> MAJOR reset (weights & contexts)
[DEBUG] handlePhaseChange -> MAJOR reset (weights & contexts)
[DEBUG] handlePhaseChange -> MAJOR reset (weights & contexts)
[DEBUG] handlePhaseChange -> MAJOR reset (weights & contexts)
[DEBUG] handlePhaseChange -> MAJOR reset (weights & contexts)
[DEBUG] handlePhaseChange -> MAJOR reset (weights & contexts)
[DEBUG] handlePhaseChange -> MAJOR reset (weights & contexts)
[DEBUG] handlePhaseChange -> MAJOR reset (weights & contexts)
[DEBUG] handlePhaseChange -> MAJOR reset (weights & contexts)
[DEBUG] handlePhaseChange -> MAJOR reset (weights & contexts)
[DEBUG] handlePhaseChange -> MAJOR reset (weights & contexts)
[DEBUG] handlePhaseChange -> MAJOR reset (weights & contexts)
[DEBUG] handlePhaseChange -> MAJOR reset (weights & contexts)
[DEBUG] handlePhaseChange -> MAJOR reset (weights & contexts)
[DEBUG] handlePhaseChange -> MAJOR reset (weights & contexts)
[DEBUG] handlePhaseChange -> MAJOR reset (weights & contexts)
[DEBUG] handlePhaseChange -> MAJOR reset (weights & contexts)
Heartbeat CPU  0 instructions:   30000000 cycles:   13962835 heartbeat IPC: 2.14879 cumulative IPC: 2.14856 (Simulation time: 0 hr 0 min 54 sec) 
[DEBUG] handlePhaseChange -> MAJOR reset (weights & contexts)
[DEBUG] handlePhaseChange -> MAJOR reset (weights & contexts)
[DEBUG] handlePhaseChange -> MAJOR reset (weights & contexts)
[DEBUG] handlePhaseChange -> MAJOR reset (weights & contexts)
[DEBUG] handlePhaseChange -> MAJOR reset (weights & contexts)
[DEBUG] handlePhaseChange -> MAJOR reset (weights & contexts)
[DEBUG] handlePhaseChange -> MAJOR reset (weights & contexts)
[DEBUG] handlePhaseChange -> MAJOR reset (weights & contexts)
[DEBUG] handlePhaseChange -> MAJOR reset (weights & contexts)
[DEBUG] handlePhaseChange -> MAJOR reset (weights & contexts)
[DEBUG] handlePhaseChange -> MAJOR reset (weights & contexts)
[DEBUG] handlePhaseChange -> MAJOR reset (weights & contexts)
[DEBUG] handlePhaseChange -> MAJOR reset (weights & contexts)
[DEBUG] handlePhaseChange -> MAJOR reset (weights & contexts)
[DEBUG] handlePhaseChange -> MAJOR reset (weights & contexts)
[DEBUG] handlePhaseChange -> MAJOR reset (weights & contexts)
[DEBUG] handlePhaseChange -> MAJOR reset (weights & contexts)
[DEBUG] handlePhaseChange -> MAJOR reset (weights & contexts)
[DEBUG] handlePhaseChange -> MAJOR reset (weights & contexts)
[DEBUG] handlePhaseChange -> MAJOR reset (weights & contexts)
[DEBUG] handlePhaseChange -> MAJOR reset (weights & contexts)
[DEBUG] handlePhaseChange -> MAJOR reset (weights & contexts)
[DEBUG] handlePhaseChange -> MAJOR reset (weights & contexts)
[DEBUG] handlePhaseChange -> MAJOR reset (weights & contexts)
[DEBUG] handlePhaseChange -> MAJOR reset (weights & contexts)
[DEBUG] handlePhaseChange -> MAJOR reset (weights & contexts)
[DEBUG] handlePhaseChange -> MAJOR reset (weights & contexts)
[DEBUG] handlePhaseChange -> MAJOR reset (weights & contexts)
[DEBUG] handlePhaseChange -> MAJOR reset (weights & contexts)
[DEBUG] handlePhaseChange -> MAJOR reset (weights & contexts)
[DEBUG] handlePhaseChange -> MAJOR reset (weights & contexts)
[DEBUG] handlePhaseChange -> MAJOR reset (weights & contexts)
[DEBUG] handlePhaseChange -> MAJOR reset (weights & contexts)
Heartbeat CPU  0 instructions:   31000002 cycles:   14428235 heartbeat IPC: 2.14869 cumulative IPC: 2.14857 (Simulation time: 0 hr 0 min 55 sec) 
[DEBUG] handlePhaseChange -> MAJOR reset (weights & contexts)
[DEBUG] handlePhaseChange -> MAJOR reset (weights & contexts)
[DEBUG] handlePhaseChange -> MAJOR reset (weights & contexts)
[DEBUG] handlePhaseChange -> MAJOR reset (weights & contexts)
[DEBUG] handlePhaseChange -> MAJOR reset (weights & contexts)
[DEBUG] handlePhaseChange -> MAJOR reset (weights & contexts)
[DEBUG] handlePhaseChange -> MAJOR reset (weights & contexts)
[DEBUG] handlePhaseChange -> MAJOR reset (weights & contexts)
[DEBUG] handlePhaseChange -> MAJOR reset (weights & contexts)
[DEBUG] handlePhaseChange -> MAJOR reset (weights & contexts)
[DEBUG] handlePhaseChange -> MAJOR reset (weights & contexts)
[DEBUG] handlePhaseChange -> MAJOR reset (weights & contexts)
[DEBUG] handlePhaseChange -> MAJOR reset (weights & contexts)
[DEBUG] handlePhaseChange -> MAJOR reset (weights & contexts)
[DEBUG] handlePhaseChange -> MAJOR reset (weights & contexts)
[DEBUG] handlePhaseChange -> MAJOR reset (weights & contexts)
[DEBUG] handlePhaseChange -> MAJOR reset (weights & contexts)
[DEBUG] handlePhaseChange -> MAJOR reset (weights & contexts)
[DEBUG] handlePhaseChange -> MAJOR reset (weights & contexts)
[DEBUG] handlePhaseChange -> MAJOR reset (weights & contexts)
[DEBUG] handlePhaseChange -> MAJOR reset (weights & contexts)
[DEBUG] handlePhaseChange -> MAJOR reset (weights & contexts)
[DEBUG] handlePhaseChange -> MAJOR reset (weights & contexts)
[DEBUG] handlePhaseChange -> MAJOR reset (weights & contexts)
[DEBUG] handlePhaseChange -> MAJOR reset (weights & contexts)
[DEBUG] handlePhaseChange -> MAJOR reset (weights & contexts)
[DEBUG] handlePhaseChange -> MAJOR reset (weights & contexts)
[DEBUG] handlePhaseChange -> MAJOR reset (weights & contexts)
[DEBUG] handlePhaseChange -> MAJOR reset (weights & contexts)
[DEBUG] handlePhaseChange -> MAJOR reset (weights & contexts)
[DEBUG] handlePhaseChange -> MAJOR reset (weights & contexts)
[DEBUG] handlePhaseChange -> MAJOR reset (weights & contexts)
[DEBUG] handlePhaseChange -> MAJOR reset (weights & contexts)
[DEBUG] handlePhaseChange -> MAJOR reset (weights & contexts)
[DEBUG] handlePhaseChange -> MAJOR reset (weights & contexts)
[DEBUG] handlePhaseChange -> MAJOR reset (weights & contexts)
Heartbeat CPU  0 instructions:   32000000 cycles:   14893641 heartbeat IPC: 2.14866 cumulative IPC: 2.14857 (Simulation time: 0 hr 0 min 57 sec) 
[DEBUG] handlePhaseChange -> MAJOR reset (weights & contexts)
[...]
scooby_state_43f2d5|53|-2 1,0,0,0,0,0,0,0,0,0,0,0,0,0,0,1,
scooby_state_57a364|30|1 1,0,0,0,0,0,0,0,0,0,0,0,0,0,0,1,
scooby_state_560e29|56|2 1,0,0,0,0,0,0,0,0,0,0,0,0,0,0,1,
scooby_state_535599|36|-17 1,0,0,0,0,0,0,0,0,0,0,0,0,0,0,1,
scooby_state_5612f0|11|1 0,1,0,0,0,0,0,0,0,0,0,0,0,0,0,1,
scooby_state_44525a|54|0 1,0,0,0,0,0,0,0,0,0,0,0,0,0,0,1,
scooby_state_535599|44|-7 1,0,0,0,0,0,0,0,0,0,0,0,0,0,0,1,
scooby_state_5355a2|51|0 1,0,0,0,0,0,0,0,0,0,0,0,0,0,0,1,
scooby_state_535599|29|19 1,0,0,0,0,0,0,0,0,0,0,0,0,0,0,1,
scooby_state_535584|27|-10 0,1,0,0,0,0,0,0,0,0,0,0,0,0,0,1,
scooby_state_535584|37|0 1,0,0,0,0,0,0,0,0,0,0,0,0,0,0,1,
scooby_state_5355a2|52|0 1,0,0,0,0,0,0,0,0,0,0,0,0,0,0,1,
scooby_state_535584|7|0 1,0,0,0,0,0,0,0,0,0,0,0,0,0,0,1,
scooby_state_441e94|29|0 1,0,0,0,0,0,0,0,0,0,0,0,0,0,0,1,
scooby_state_445343|13|1 1,0,0,0,0,0,0,0,0,0,0,0,0,0,0,1,
scooby_state_440705|50|0 0,1,0,0,0,0,0,0,0,0,0,0,0,0,0,1,
scooby_state_55fd40|53|14 1,0,0,0,0,0,0,0,0,0,0,0,0,0,0,1,
scooby_state_53a668|25|2 1,0,0,0,0,0,0,0,0,0,0,0,0,0,0,1,
scooby_state_44544f|57|1 1,0,0,0,0,0,0,0,0,0,0,0,0,0,0,1,
scooby_state_445247|9|1 1,0,0,0,0,0,0,0,0,0,0,0,0,0,0,1,
scooby_state_445206|8|1 1,0,0,0,0,0,0,0,0,0,0,0,0,0,0,1,
scooby_state_518080|2|-9 1,0,0,0,0,0,0,0,0,0,0,0,0,0,0,1,
scooby_state_561904|36|1 1,0,0,0,0,0,0,0,0,0,0,0,0,0,0,1,
scooby_state_441341|13|1 1,0,0,0,0,0,0,0,0,0,0,0,0,0,0,1,
scooby_state_535599|3|-53 1,0,0,0,0,0,0,0,0,0,0,0,0,0,0,1,
scooby_state_517f1d|3|0 1,0,0,0,0,0,0,0,0,0,0,0,0,0,0,1,
scooby_state_55fa42|41|1 1,0,0,0,0,0,0,0,0,0,0,0,0,0,0,1,
scooby_state_440ee9|3|0 1,0,0,0,0,0,0,0,0,0,0,0,0,0,0,1,
scooby_state_43f702|28|0 1,0,0,0,0,0,0,0,0,0,0,0,0,0,0,1,
scooby_state_535599|56|0 1,0,0,0,0,0,0,0,0,0,0,0,0,0,0,1,
scooby_state_43f2d5|51|-1 1,0,0,0,0,0,0,0,0,0,0,0,0,0,0,1,
scooby_state_43f301|12|1 1,0,0,0,0,0,0,0,0,0,0,0,0,0,0,1,
scooby_state_440ee9|55|0 1,0,0,0,0,0,0,0,0,0,0,0,0,0,0,1,
scooby_state_440995|0|-37 1,0,0,0,0,0,0,0,0,0,0,0,0,0,0,1,
scooby_state_535599|46|16 1,0,0,0,0,0,0,0,0,0,0,0,0,0,0,1,
scooby_state_535599|26|-33 1,0,0,0,0,0,0,0,0,0,0,0,0,0,0,1,
scooby_state_43f2d5|10|-1 1,0,0,0,0,0,0,0,0,0,0,0,0,0,0,1,
scooby_state_535599|26|-13 1,0,0,0,0,0,0,0,0,0,0,0,0,0,0,1,
scooby_state_55fefd|57|-2 0,1,0,0,0,0,0,0,0,0,0,0,0,0,0,1,
scooby_state_441da6|18|0 0,0,0,0,0,0,0,0,0,0,0,0,0,0,1,1,
scooby_state_535584|45|15 1,0,0,0,0,0,0,0,0,0,0,0,0,0,0,1,
scooby_state_43f480|18|1 1,0,0,0,0,0,0,0,0,0,0,0,0,0,0,1,
scooby_state_43f2d5|27|2 1,0,0,0,0,0,0,0,0,0,0,0,0,0,0,1,
scooby_state_441b33|4|-59 1,0,0,0,0,0,0,0,0,0,0,0,0,0,0,1,
scooby_state_5379c2|39|1 1,0,0,0,0,0,0,0,0,0,0,0,0,0,0,1,
scooby_state_44546a|0|0 1,0,0,0,0,0,0,0,0,0,0,0,0,0,0,1,
scooby_state_535599|58|27 1,0,0,0,0,0,0,0,0,0,0,0,0,0,0,1,
scooby_state_4417c3|31|1 1,0,0,0,0,0,0,0,0,0,0,0,0,0,0,1,
scooby_state_5355a2|49|42 1,0,0,0,0,0,0,0,0,0,0,0,0,0,0,1,
scooby_state_518100|4|1 1,0,0,0,0,0,0,0,0,0,0,0,0,0,0,1,
scooby_state_441807|32|1 1,0,0,0,0,0,0,0,0,0,0,0,0,0,0,1,
scooby_state_43fac3|43|1 1,0,0,0,0,0,0,0,0,0,0,0,0,0,0,1,
scooby_state_441ace|43|2 1,0,0,0,0,0,0,0,0,0,0,0,0,0,0,1,
scooby_state_44546a|40|0 1,0,0,0,0,0,0,0,0,0,0,0,0,0,0,1,
scooby_state_537350|13|4 1,0,0,0,0,0,0,0,0,0,0,0,0,0,0,1,
scooby_state_440693|48|0 0,0,1,0,0,0,0,0,0,0,0,0,0,0,0,1,
scooby_state_441ad6|27|-36 1,0,0,0,0,0,0,0,0,0,0,0,0,0,0,1,
scooby_state_44065a|15|0 1,0,0,0,0,0,0,0,0,0,0,0,0,0,0,1,
scooby_state_43f603|24|0 1,0,0,0,0,0,0,0,0,0,0,0,0,0,0,1,
scooby_state_440d64|39|0 1,0,0,0,0,0,0,0,0,0,0,0,0,0,0,1,
scooby_state_441da6|0|-3 1,0,0,0,0,0,0,0,0,0,0,0,0,0,0,1,
scooby_state_43f804|39|8 1,0,0,0,0,0,0,0,0,0,0,0,0,0,0,1,
scooby_state_440d43|53|1 1,0,0,0,0,0,0,0,0,0,0,0,0,0,0,1,
scooby_state_535599|62|-1 1,0,0,0,0,0,0,0,0,0,0,0,0,0,0,1,
scooby_state_44546a|46|1 1,0,0,0,0,0,0,0,0,0,0,0,0,0,0,1,
scooby_state_509003|0|0 1,0,0,0,0,0,0,0,0,0,0,0,0,0,0,1,
scooby_state_5354c3|19|1 1,0,0,0,0,0,0,0,0,0,0,0,0,0,0,1,
scooby_state_43fec4|59|1 1,0,0,0,0,0,0,0,0,0,0,0,0,0,0,1,
scooby_state_445494|40|1 1,0,0,0,0,0,0,0,0,0,0,0,0,0,0,1,
scooby_state_44544f|45|1 1,0,0,0,0,0,0,0,0,0,0,0,0,0,0,1,
scooby_state_50c880|34|1 1,0,0,0,0,0,0,0,0,0,0,0,0,0,0,1,
scooby_state_44546a|2|1 1,0,0,0,0,0,0,0,0,0,0,0,0,0,0,1,
scooby_state_440ed6|58|0 0,0,0,0,0,0,0,0,0,0,0,0,1,0,0,1,
scooby_state_535584|27|18 1,0,0,0,0,0,0,0,0,0,0,0,0,0,0,1,
scooby_state_44065a|22|0 1,0,0,0,0,0,0,0,0,0,0,0,0,0,0,1,
scooby_state_445494|45|1 1,0,0,0,0,0,0,0,0,0,0,0,0,0,0,1,
scooby_state_4453ad|23|3 1,0,0,0,0,0,0,0,0,0,0,0,0,0,0,1,
scooby_state_44096b|50|-13 1,0,0,0,0,0,0,0,0,0,0,0,0,0,0,1,
scooby_state_44546a|53|1 1,0,0,0,0,0,0,0,0,0,0,0,0,0,0,1,
scooby_state_440900|36|1 1,0,0,0,0,0,0,0,0,0,0,0,0,0,0,1,
scooby_state_43f3c1|15|1 1,0,0,0,0,0,0,0,0,0,0,0,0,0,0,1,
scooby_state_55ff04|60|15 1,0,0,0,0,0,0,0,0,0,0,0,0,0,0,1,
scooby_state_440e1b|18|0 1,0,0,0,0,0,0,0,0,0,0,0,0,0,0,1,
scooby_state_44544f|7|1 1,0,0,0,0,0,0,0,0,0,0,0,0,0,0,1,
scooby_state_445494|55|1 1,0,0,0,0,0,0,0,0,0,0,0,0,0,0,1,
scooby_state_43f8c2|35|1 1,0,0,0,0,0,0,0,0,0,0,0,0,0,0,1,
scooby_state_44544f|3|1 1,0,0,0,0,0,0,0,0,0,0,0,0,0,0,1,
scooby_state_445494|42|1 1,0,0,0,0,0,0,0,0,0,0,0,0,0,0,1,
scooby_state_44546a|55|1 1,0,0,0,0,0,0,0,0,0,0,0,0,0,0,1,
scooby_state_442005|0|0 1,0,0,0,0,0,0,0,0,0,0,0,0,0,0,1,
scooby_state_440705|35|0 0,1,0,0,0,0,0,0,0,0,0,0,0,0,0,1,
scooby_state_43f84a|36|-3 1,0,0,0,0,0,0,0,0,0,0,0,0,0,0,1,
scooby_state_4454c3|19|1 1,0,0,0,0,0,0,0,0,0,0,0,0,0,0,1,
scooby_state_43f4c0|19|1 1,0,0,0,0,0,0,0,0,0,0,0,0,0,0,1,
scooby_state_441e94|38|0 1,0,0,0,0,0,0,0,0,0,0,0,0,0,0,1,
scooby_state_4003f0|15|0 1,0,0,0,0,0,0,0,0,0,0,0,0,0,0,1,
scooby_state_445494|58|1 1,0,0,0,0,0,0,0,0,0,0,0,0,0,0,1,
scooby_state_535599|34|19 1,0,0,0,0,0,0,0,0,0,0,0,0,0,0,1,
scooby_state_56140f|16|7 1,0,0,0,0,0,0,0,0,0,0,0,0,0,0,1,
scooby_state_535599|7|-17 1,0,0,0,0,0,0,0,0,0,0,0,0,0,0,1,
scooby_state_441b33|18|-45 0,1,0,0,0,0,0,0,0,0,0,0,0,0,0,1,
scooby_state_43fe81|58|1 1,0,0,0,0,0,0,0,0,0,0,0,0,0,0,1,
scooby_state_43fb42|45|1 1,0,0,0,0,0,0,0,0,0,0,0,0,0,0,1,
scooby_state_441da6|0|-10 1,0,0,0,0,0,0,0,0,0,0,0,0,0,0,1,
scooby_state_441da6|0|-20 1,0,0,0,0,0,0,0,0,0,0,0,0,0,0,1,
scooby_state_44544f|54|1 1,0,0,0,0,0,0,0,0,0,0,0,0,0,0,1,
scooby_state_43f878|37|1 0,0,0,0,0,0,0,0,0,0,0,1,0,0,0,1,
scooby_state_44544f|4|1 1,0,0,0,0,0,0,0,0,0,0,0,0,0,0,1,
scooby_state_43f4e2|50|2 1,0,0,0,0,0,0,0,0,0,0,0,0,0,0,1,
scooby_state_44065a|12|0 1,0,0,0,0,0,0,0,0,0,0,0,0,0,0,1,
scooby_state_44546a|8|1 1,0,0,0,0,0,0,0,0,0,0,0,0,0,0,1,
scooby_state_441da6|25|0 1,0,0,0,0,0,0,0,0,0,0,0,0,0,0,1,
scooby_state_44546a|63|1 1,0,0,0,0,0,0,0,0,0,0,0,0,0,0,1,
scooby_state_44544f|6|1 1,0,0,0,0,0,0,0,0,0,0,0,0,0,0,1,
scooby_state_44546a|10|1 1,0,0,0,0,0,0,0,0,0,0,0,0,0,0,1,
scooby_state_535584|22|-6 1,0,0,0,0,0,0,0,0,0,0,0,0,0,0,1,
scooby_state_53a980|38|1 1,0,0,0,0,0,0,0,0,0,0,0,0,0,0,1,
scooby_state_535599|34|-10 1,0,0,0,0,0,0,0,0,0,0,0,0,0,0,1,
scooby_state_4406e7|27|0 1,0,0,0,0,0,0,0,0,0,0,0,0,0,0,1,
scooby_state_43f407|16|1 1,0,0,0,0,0,0,0,0,0,0,0,0,0,0,1,
scooby_state_535599|39|-19 1,0,0,0,0,0,0,0,0,0,0,0,0,0,0,1,
scooby_state_43f784|30|1 1,0,0,0,0,0,0,0,0,0,0,0,0,0,0,1,
scooby_state_535584|6|-20 0,0,1,0,0,0,0,0,0,0,0,0,0,0,0,1,
scooby_state_50b7d0|31|1 1,0,0,0,0,0,0,0,0,0,0,0,0,0,0,1,
scooby_state_4402c0|11|1 1,0,0,0,0,0,0,0,0,0,0,0,0,0,0,1,
scooby_state_44544f|62|1 1,0,0,0,0,0,0,0,0,0,0,0,0,0,0,1,
scooby_state_445494|1|1 1,0,0,0,0,0,0,0,0,0,0,0,0,0,0,1,
scooby_state_535599|42|0 1,0,0,0,0,0,0,0,0,0,0,0,0,0,0,1,
scooby_state_44065a|4|0 1,0,0,0,0,0,0,0,0,0,0,0,0,0,0,1,
scooby_state_440705|42|0 0,1,0,0,0,0,0,0,0,0,0,0,0,0,0,1,
scooby_state_5184c0|19|-5 1,0,0,0,0,0,0,0,0,0,0,0,0,0,0,1,
scooby_state_44097e|22|3 1,0,0,0,0,0,0,0,0,0,0,0,0,0,0,1,
scooby_state_43f804|32|1 1,0,0,0,0,0,0,0,0,0,0,0,0,0,0,1,
scooby_state_535584|53|22 1,0,0,0,0,0,0,0,0,0,0,0,0,0,0,1,
scooby_state_441da6|0|-13 1,0,0,0,0,0,0,0,0,0,0,0,0,0,0,1,
scooby_state_535584|31|24 1,0,0,0,0,0,0,0,0,0,0,0,0,0,0,1,
scooby_state_441908|36|1 0,1,0,0,0,0,0,0,0,0,0,0,0,0,0,1,
scooby_state_535599|18|-5 1,0,0,0,0,0,0,0,0,0,0,0,0,0,0,1,
scooby_state_535584|34|0 1,0,0,0,0,0,0,0,0,0,0,0,0,0,0,1,
scooby_state_44546a|59|1 1,0,0,0,0,0,0,0,0,0,0,0,0,0,0,1,
scooby_state_44544f|53|1 1,0,0,0,0,0,0,0,0,0,0,0,0,0,0,1,
scooby_state_445150|5|0 1,0,0,0,0,0,0,0,0,0,0,0,0,0,0,1,
scooby_state_445494|52|1 1,0,0,0,0,0,0,0,0,0,0,0,0,0,0,1,
scooby_state_44546a|61|1 1,0,0,0,0,0,0,0,0,0,0,0,0,0,0,1,
scooby_state_535599|27|-19 1,0,0,0,0,0,0,0,0,0,0,0,0,0,0,1,
scooby_state_535599|62|0 1,0,0,0,0,0,0,0,0,0,0,0,0,0,0,1,
scooby_state_44546a|52|1 1,0,0,0,0,0,0,0,0,0,0,0,0,0,0,1,
scooby_state_445494|50|1 1,0,0,0,0,0,0,0,0,0,0,0,0,0,0,1,
scooby_state_50c9e8|39|1 1,0,0,0,0,0,0,0,0,0,0,0,0,0,0,1,
scooby_state_44544f|38|0 1,0,0,0,0,0,0,0,0,0,0,0,0,0,0,1,
scooby_state_43f6f6|33|-15 1,0,0,0,0,0,0,0,0,0,0,0,0,0,0,1,
scooby_state_44546a|45|1 1,0,0,0,0,0,0,0,0,0,0,0,0,0,0,1,
scooby_state_560400|16|1 1,0,0,0,0,0,0,0,0,0,0,0,0,0,0,1,
scooby_state_445494|63|1 1,0,0,0,0,0,0,0,0,0,0,0,0,0,0,1,
scooby_state_536f96|62|4 1,0,0,0,0,0,0,0,0,0,0,0,0,0,0,1,
scooby_state_51819a|6|-57 1,0,0,0,0,0,0,0,0,0,0,0,0,0,0,1,
scooby_state_441b33|61|-2 1,0,0,0,0,0,0,0,0,0,0,0,0,0,0,1,
scooby_state_44546a|47|1 1,0,0,0,0,0,0,0,0,0,0,0,0,0,0,1,
scooby_state_441701|28|1 1,0,0,0,0,0,0,0,0,0,0,0,0,0,0,1,
scooby_state_43f2d5|51|2 1,0,0,0,0,0,0,0,0,0,0,0,0,0,0,1,
scooby_state_441f45|61|1 1,0,0,0,0,0,0,0,0,0,0,0,0,0,0,1,
scooby_state_535584|13|-12 0,0,1,0,0,0,0,0,0,0,0,0,0,0,0,1,
scooby_state_44544f|60|1 1,0,0,0,0,0,0,0,0,0,0,0,0,0,0,1,
scooby_state_535599|31|0 1,0,0,0,0,0,0,0,0,0,0,0,0,0,0,1,
scooby_state_44544f|59|1 1,0,0,0,0,0,0,0,0,0,0,0,0,0,0,1,
scooby_state_43f341|13|0 1,0,0,0,0,0,0,0,0,0,0,0,0,0,0,1,
scooby_state_440d43|48|0 1,0,0,0,0,0,0,0,0,0,0,0,0,0,0,1,
scooby_state_44544f|49|1 1,0,0,0,0,0,0,0,0,0,0,0,0,0,0,1,
scooby_state_44546a|48|1 1,0,0,0,0,0,0,0,0,0,0,0,0,0,0,1,
scooby_state_53556e|42|-1 1,0,0,0,0,0,0,0,0,0,0,0,0,0,0,1,
scooby_state_43f4e2|53|2 1,0,0,0,0,0,0,0,0,0,0,0,0,0,0,1,
scooby_state_441da6|4|0 1,0,0,0,0,0,0,0,0,0,0,0,0,0,0,1,
scooby_state_445494|57|1 1,0,0,0,0,0,0,0,0,0,0,0,0,0,0,1,
scooby_state_44546a|6|1 1,0,0,0,0,0,0,0,0,0,0,0,0,0,0,1,
scooby_state_441ad6|32|-31 1,0,0,0,0,0,0,0,0,0,0,0,0,0,0,1,
scooby_state_535599|51|18 1,0,0,0,0,0,0,0,0,0,0,0,0,0,0,1,
scooby_state_535584|18|0 1,0,0,0,0,0,0,0,0,0,0,0,0,0,0,1,
scooby_state_50b95d|37|-4 1,0,0,0,0,0,0,0,0,0,0,0,0,0,0,1,
scooby_state_56ad81|54|1 1,0,0,0,0,0,0,0,0,0,0,0,0,0,0,1,
scooby_state_44546a|54|1 1,0,0,0,0,0,0,0,0,0,0,0,0,0,0,1,
scooby_state_5355c5|23|1 1,0,0,0,0,0,0,0,0,0,0,0,0,0,0,1,
scooby_state_5379f2|50|12 1,0,0,0,0,0,0,0,0,0,0,0,0,0,0,1,
scooby_state_445494|48|1 1,0,0,0,0,0,0,0,0,0,0,0,0,0,0,1,
scooby_state_44544f|8|1 1,0,0,0,0,0,0,0,0,0,0,0,0,0,0,1,
scooby_state_43f77c|46|4 1,0,0,0,0,0,0,0,0,0,0,0,0,0,0,1,
scooby_state_440705|45|0 0,1,0,0,0,0,0,0,0,0,0,0,0,0,0,1,
scooby_state_535599|19|-3 1,0,0,0,0,0,0,0,0,0,0,0,0,0,0,1,
scooby_state_535599|10|-15 1,0,0,0,0,0,0,0,0,0,0,0,0,0,0,1,
scooby_state_43fc81|50|1 0,0,0,0,0,0,0,0,0,0,0,0,1,0,0,1,
scooby_state_535600|24|1 1,0,0,0,0,0,0,0,0,0,0,0,0,0,0,1,
scooby_state_440d43|45|0 1,0,0,0,0,0,0,0,0,0,0,0,0,0,0,1,
scooby_state_517c90|50|-12 1,0,0,0,0,0,0,0,0,0,0,0,0,0,0,1,
scooby_state_44544f|46|1 1,0,0,0,0,0,0,0,0,0,0,0,0,0,0,1,
scooby_state_445486|21|0 1,0,0,0,0,0,0,0,0,0,0,0,0,0,0,1,
scooby_state_445494|4|1 1,0,0,0,0,0,0,0,0,0,0,0,0,0,0,1,
scooby_state_55f9e0|39|3 1,0,0,0,0,0,0,0,0,0,0,0,0,0,0,1,
scooby_state_441ae2|42|-21 1,0,0,0,0,0,0,0,0,0,0,0,0,0,0,1,
scooby_state_5355a2|43|0 1,0,0,0,0,0,0,0,0,0,0,0,0,0,0,1,
scooby_state_44546a|56|1 1,0,0,0,0,0,0,0,0,0,0,0,0,0,0,1,
scooby_state_44544f|52|1 1,0,0,0,0,0,0,0,0,0,0,0,0,0,0,1,
scooby_state_535544|21|1 1,0,0,0,0,0,0,0,0,0,0,0,0,0,0,1,
scooby_state_50901a|49|17 1,0,0,0,0,0,0,0,0,0,0,0,0,0,0,1,
scooby_state_445494|53|1 1,0,0,0,0,0,0,0,0,0,0,0,0,0,0,1,
scooby_state_445401|16|1 1,0,0,0,0,0,0,0,0,0,0,0,0,0,0,1,
scooby_state_441ad6|41|-22 1,0,0,0,0,0,0,0,0,0,0,0,0,0,0,1,
scooby_state_535584|27|0 1,0,0,0,0,0,0,0,0,0,0,0,0,0,0,1,
scooby_state_44544f|41|1 1,0,0,0,0,0,0,0,0,0,0,0,0,0,0,1,
scooby_state_440960|0|-47 1,0,0,0,0,0,0,0,0,0,0,0,0,0,0,1,
scooby_state_535584|18|7 1,0,0,0,0,0,0,0,0,0,0,0,0,0,0,1,
scooby_state_445494|51|1 1,0,0,0,0,0,0,0,0,0,0,0,0,0,0,1,
scooby_state_43ff06|60|1 1,0,0,0,0,0,0,0,0,0,0,0,0,0,0,1,
scooby_state_44544f|56|1 1,0,0,0,0,0,0,0,0,0,0,0,0,0,0,1,
scooby_state_440a76|30|-20 1,0,0,0,0,0,0,0,0,0,0,0,0,0,0,1,
scooby_state_441dc3|55|1 1,0,0,0,0,0,0,0,0,0,0,0,0,0,0,1,
scooby_state_440185|6|1 1,0,0,0,0,0,0,0,0,0,0,0,0,0,0,1,
scooby_state_5603f5|11|0 1,0,0,0,0,0,0,0,0,0,0,0,0,0,0,1,

scooby_action_0_deg_dist 0,26609,0,0,0,0,0,0,0,0,0,0,0,0,0,0,
scooby_action_4_deg_dist 0,51400,175,0,342,0,291,0,0,0,0,0,0,0,0,0,
scooby_action_32_deg_dist 0,3674,0,0,0,0,0,0,0,0,0,0,0,0,0,0,
scooby_action_3_deg_dist 0,139944,775,0,1062,0,4488,0,0,0,0,0,0,0,0,0,
scooby_action_5_deg_dist 0,5739,0,0,0,0,0,0,0,0,0,0,0,0,0,0,
scooby_action_1_deg_dist 0,5257776,163656,0,360990,0,2899533,0,0,0,0,0,0,0,0,0,
scooby_action_30_deg_dist 0,3842,0,0,0,0,0,0,0,0,0,0,0,0,0,0,
scooby_action_-3_deg_dist 0,9096,6,0,16,0,118,0,0,0,0,0,0,0,0,0,
scooby_action_10_deg_dist 0,4915,0,0,0,0,0,0,0,0,0,0,0,0,0,0,
scooby_action_-1_deg_dist 0,16121,0,0,0,0,0,0,0,0,0,0,0,0,0,0,
scooby_action_23_deg_dist 0,4096,0,0,0,0,0,0,0,0,0,0,0,0,0,0,
scooby_action_-6_deg_dist 0,4581,0,0,0,0,0,0,0,0,0,0,0,0,0,0,
scooby_action_11_deg_dist 0,4791,0,0,0,0,0,0,0,0,0,0,0,0,0,0,
scooby_action_22_deg_dist 0,4184,0,0,0,0,0,0,0,0,0,0,0,0,0,0,
scooby_action_12_deg_dist 0,4686,0,0,0,0,0,0,0,0,0,0,0,0,0,0,

scooby_track_called 8972906
scooby_track_same_address 1738485
scooby_track_evict 7234165

scooby_reward_demand_called 8972906
scooby_reward_demand_pt_not_found 4896431
scooby_reward_demand_pt_found 4076475
scooby_reward_demand_pt_found_total 4076475
scooby_reward_demand_has_reward 12117
scooby_reward_train_called 3030859
scooby_reward_assign_reward_called 7234179
scooby_reward_no_pref 26609
scooby_reward_incorrect 3004250
scooby_reward_correct_untimely 3928944
scooby_reward_correct_timely 135414
scooby_reward_out_of_bounds 138962
scooby_reward_tracker_hit 0

scooby_reward_none_low_bw 26609
scooby_reward_none_high_bw 0
scooby_reward_incorrect_low_bw 3004250
scooby_reward_incorrect_high_bw 0
scooby_reward_correct_untimely_low_bw 3928944
scooby_reward_correct_untimely_high_bw 0
scooby_reward_correct_timely_low_bw 135414
scooby_reward_correct_timely_high_bw 0
scooby_reward_out_of_bounds_low_bw 138962
scooby_reward_out_of_bounds_high_bw 0
scooby_reward_tracker_hit_low_bw 0
scooby_reward_tracker_hit_high_bw 0

scooby_reward_1 0,2942116,3777433,133089,120560,0,
scooby_reward_3 0,18822,105167,638,5711,0,
scooby_reward_4 0,9462,37699,371,2856,0,
scooby_reward_5 0,3820,400,95,270,0,
scooby_reward_10 0,3303,109,279,688,0,
scooby_reward_11 0,3163,109,239,735,0,
scooby_reward_12 0,3120,99,238,769,0,
scooby_reward_22 0,2296,4,147,1409,0,
scooby_reward_23 0,2147,4,126,1537,0,
scooby_reward_30 0,1693,1,92,1863,0,
scooby_reward_32 0,1464,0,79,1950,0,
scooby_reward_-1 0,5127,4460,19,95,0,
scooby_reward_-3 0,4337,3429,2,172,0,
scooby_reward_-6 0,3380,30,0,347,0,
scooby_reward_0 26609,0,0,0,0,0,

scooby_train_called 7234164
scooby_train_compute_reward 3030859

scooby_register_fill_called 4806993
scooby_register_fill_set 336069
scooby_register_fill_set_total 336069

scooby_register_prefetch_hit_called 32729741
scooby_register_prefetch_hit_set 6746070
scooby_register_prefetch_hit_set_total 6746070

scooby_pref_issue_scooby 41269040

learning_engine_featurewise.action.called 8972906
learning_engine_featurewise.action.explore 16247
learning_engine_featurewise.action.exploit 8956659
learning_engine_featurewise.action.fallback 4924469
learning_engine_featurewise.action.dyn_fallback_saved_bw 0
learning_engine_featurewise.action.dyn_fallback_saved_bw_acc 95328
learning_engine_featurewise.action.index_1_explored 1111
learning_engine_featurewise.action.index_1_exploited 8680844
learning_engine_featurewise.action.index_3_explored 1065
learning_engine_featurewise.action.index_3_exploited 145204
learning_engine_featurewise.action.index_4_explored 1085
learning_engine_featurewise.action.index_4_exploited 51123
learning_engine_featurewise.action.index_5_explored 1047
learning_engine_featurewise.action.index_5_exploited 4692
learning_engine_featurewise.action.index_10_explored 1129
learning_engine_featurewise.action.index_10_exploited 3786
learning_engine_featurewise.action.index_11_explored 1088
learning_engine_featurewise.action.index_11_exploited 3703
learning_engine_featurewise.action.index_12_explored 1117
learning_engine_featurewise.action.index_12_exploited 3569
learning_engine_featurewise.action.index_22_explored 1087
learning_engine_featurewise.action.index_22_exploited 3097
learning_engine_featurewise.action.index_23_explored 1079
learning_engine_featurewise.action.index_23_exploited 3017
learning_engine_featurewise.action.index_30_explored 1063
learning_engine_featurewise.action.index_30_exploited 2779
learning_engine_featurewise.action.index_32_explored 1030
learning_engine_featurewise.action.index_32_exploited 2644
learning_engine_featurewise.action.index_-1_explored 1086
learning_engine_featurewise.action.index_-1_exploited 15035
learning_engine_featurewise.action.index_-3_explored 1077
learning_engine_featurewise.action.index_-3_exploited 8159
learning_engine_featurewise.action.index_-6_explored 1086
learning_engine_featurewise.action.index_-6_exploited 3495
learning_engine_featurewise.action.index_0_explored 1097
learning_engine_featurewise.action.index_0_exploited 25512
learning_engine_featurewise.learn.called 7234164
learning_engine_featurewise.learn.su_skip_PC 0
learning_engine_featurewise.learn.su_skip_PC_Delta 0

learning_engine_featurewise.q_value_histogram.bucket_0 58001
learning_engine_featurewise.q_value_histogram.bucket_1 5775
learning_engine_featurewise.q_value_histogram.bucket_2 5004583
learning_engine_featurewise.q_value_histogram.bucket_3 17628
learning_engine_featurewise.q_value_histogram.bucket_4 23896
learning_engine_featurewise.q_value_histogram.bucket_5 39272
learning_engine_featurewise.q_value_histogram.bucket_6 3807504
learning_engine_featurewise.q_value_histogram.bucket_7 0

learning_engine_featurewise.consensus.total 8956659
learning_engine_featurewise.consensus.feature_align_PC 8858524
learning_engine_featurewise.consensus.feature_align_PC_ratio 0.99
learning_engine_featurewise.consensus.feature_align_PC_Delta 8857167
learning_engine_featurewise.consensus.feature_align_PC_Delta_ratio 0.99
learning_engine_featurewise.consensus.feature_align_all 8815757
learning_engine_featurewise.consensus.feature_align_all_ratio 0.98

learning_engine_featurewise.feature_PC_min_weight 1000000.00000000
learning_engine_featurewise.feature_PC_max_weight 0.00000000
learning_engine_featurewise.feature_PC_Delta_min_weight 1000000.00000000
learning_engine_featurewise.feature_PC_Delta_max_weight 0.00000000
unique_pcs 702
unique_pages 33472
unique_trigger_pcs 203
total_bitmaps_seen 0
unique_bitmaps_seen 0

scooby_bw_epochs 2899762
scooby_bw_level_0 2431131
scooby_bw_level_1 251832
scooby_bw_level_2 78100
scooby_bw_level_3 138699

scooby_ipc_epochs 0
scooby_ipc_level_0 0
scooby_ipc_level_1 0
scooby_ipc_level_2 0
scooby_ipc_level_3 0

scooby_cache_acc_epochs 717595
scooby_cache_acc_level_0 133225
scooby_cache_acc_level_1 91897
scooby_cache_acc_level_2 95426
scooby_cache_acc_level_3 35126
scooby_cache_acc_level_4 18731
scooby_cache_acc_level_5 100169
scooby_cache_acc_level_6 43414
scooby_cache_acc_level_7 33304
scooby_cache_acc_level_8 37165
scooby_cache_acc_level_9 129138

Channel_0_RQ_row_buffer_hit 1388994
Channel_0_RQ_row_buffer_miss 2189456
Channel_0_WQ_row_buffer_hit 120966
Channel_0_WQ_row_buffer_miss 747489
Channel_0_WQ_full 114
Channel_0_dbus_congested 2263808

avg_congested_cycle 10

DRAM_bw_pochs 2899762
DRAM_bw_level_0 2431131
DRAM_bw_level_1 251832
DRAM_bw_level_2 78100
DRAM_bw_level_3 138699
