*************************************************
   ChampSim Multicore Out-of-Order Simulator
   Last compiled: Apr  8 2025 10:20:20
*************************************************
parsing config file: /home/Pythia/config/pythia.ini

trace_0 /home/Pythia/traces/cloud9_phase5_core2.trace.xz
adding L2C_PREFETCHER: Scooby
Initialize SHIP state
warmup_instructions 100000000
simulation_instructions 150000000
champsim_seed 1839
measure_ipc 0
measure_ipc_epoch 1000
measure_dram_bw 1
measure_dram_bw_epoch 256
measure_cache_acc 1
measure_cache_acc_epoch 1024
l1d_perfect 0
l2c_perfect 0
llc_perfect 0
l1d_semi_perfect 0
l2c_semi_perfect 0
llc_semi_perfect 0
semi_perfect_cache_page_buffer_size 64

num_cpus 1
cpu_freq 4000
dram_io_freq 2400
page_size 4096
block_size 64
max_read_per_cycle 8
max_fill_per_cycle 1
dram_channels 1
log2_dram_channels 0
dram_ranks 1
dram_banks 8
dram_rows 65536
dram_columns 128
dram_row_size 8
dram_size 4096
dram_pages 1048576

fetch_width 6
decode_width 6
exec_width 4
lq_width 2
sq_width 2
retire_width 4
scheduler_size 128
branch_mispredict_penalty 20
rob_size 256
lq_size 72
sq_size 56
num_instr_destinations_sparc 4
num_instr_destinations 2
num_instr_sources 4

itlb_set 16
itlb_way 8
itlb_rq_size 16
itlb_wq_size 16
itlb_pq_size 0
itlb_mshr_size 8
itlb_latency 1

dtlb_set 16
dtlb_way 4
dtlb_rq_size 16
dtlb_wq_size 16
dtlb_pq_size 0
dtlb_mshr_size 8
dtlb_latency 1

stlb_set 128
stlb_way 12
stlb_rq_size 32
stlb_wq_size 32
stlb_pq_size 0
stlb_mshr_size 16
stlb_latency 8

l1i_size 32
l1i_set 64
l1i_way 8
l1i_rq_size 64
l1i_wq_size 64
l1i_pq_size 8
l1i_mshr_size 8
l1i_latency 1

l1d_size 32
l1d_set 64
l1d_way 8
l1d_rq_size 64
l1d_wq_size 64
l1d_pq_size 8
l1d_mshr_size 16
l1d_latency 4

l2c_size 256
l2c_set 512
l2c_way 8
l2c_rq_size 32
l2c_wq_size 32
l2c_pq_size 32
l2c_mshr_size 32
l2c_latency 10

llc_size 2048
llc_set 2048
llc_way 16
llc_rq_size 32
llc_wq_size 32
llc_pq_size 32
llc_mshr_size 64
llc_latency 20

dram_channel_width 8
dram_wq_size 64
dram_rq_size 64
tRP 15
tRCD 15
tCAS 12.5
dram_dbus_turn_around_time 30
dram_write_high_wm 56
dram_write_low_wm 48
min_dram_writes_per_switch 16
dram_mtps 2400
dram_dbus_return_time 13

scooby_alpha 0.0065088
scooby_gamma 0.556301
scooby_epsilon 0.00182284
scooby_state_num_bits 10
scooby_max_states 1024
scooby_seed 200
scooby_policy EGreedy
scooby_learning_type SARSA
scooby_actions 1,3,4,5,10,11,12,22,23,30,32,-1,-3,-6,0,
scooby_max_actions 15
scooby_pt_size 256
scooby_st_size 64
scooby_max_pcs 5
scooby_max_offsets 5
scooby_max_deltas 5
scooby_reward_none -4
scooby_reward_incorrect -8
scooby_reward_correct_untimely 12
scooby_reward_correct_timely 20
scooby_brain_zero_init 0
scooby_enable_reward_all 0
scooby_enable_track_multiple 0
scooby_enable_reward_out_of_bounds 1
scooby_reward_out_of_bounds -12
scooby_state_type 1
scooby_state_hash_type 11
scooby_access_debug 0
scooby_print_access_debug 0
scooby_print_access_debug_pc deadbeef
scooby_print_access_debug_pc_count 0
scooby_print_trace 0
scooby_enable_state_action_stats 1
scooby_enable_reward_tracker_hit 0
scooby_reward_tracker_hit -2
scooby_enable_featurewise_engine 1
scooby_pref_degree 1
scooby_enable_dyn_degree 1
scooby_max_to_avg_q_thresholds 0.5,1,2,
scooby_dyn_degrees 1,2,4,4,
scooby_multi_deg_select_type 2
scooby_last_pref_offset_conf_thresholds 1,3,8,
scooby_dyn_degrees_type2 1,2,4,6,
scooby_action_tracker_size 2
scooby_high_bw_thresh 4
scooby_enable_hbw_reward 1
scooby_reward_hbw_correct_timely 20
scooby_reward_hbw_correct_untimely 12
scooby_reward_hbw_incorrect -14
scooby_reward_hbw_none -2
scooby_reward_hbw_out_of_bounds -12
scooby_reward_hbw_tracker_hit -2
scooby_last_pref_offset_conf_thresholds_hbw 1,3,8,
scooby_dyn_degrees_type2_hbw 1,2,4,6,

le_enable_trace 0
le_trace_interval 0
le_trace_file_name 
le_trace_state 0
le_enable_score_plot 0
le_plot_file_name 
le_plot_actions 
le_enable_action_trace 0
le_action_trace_interval 0
le_action_trace_name 
le_enable_action_plot 0

le_featurewise_active_features PC, PC_Delta
le_featurewise_num_tilings 3,3,
le_featurewise_num_tiles 128,128,
le_featurewise_hash_types 2,2,
le_featurewise_enable_tiling_offset 1,1,
le_featurewise_max_q_thresh 0.5
le_featurewise_enable_action_fallback 1
le_featurewise_feature_weights 1,1,
le_featurewise_enable_dynamic_weight 0
le_featurewise_weight_gradient 0.001
le_featurewise_disable_adjust_weight_all_features_align 1
le_featurewise_selective_update 0
le_featurewise_pooling_type 2
le_featurewise_enable_dyn_action_fallback 1
le_featurewise_bw_acc_check_level 1
le_featurewise_acc_thresh 2
le_featurewise_enable_trace 0
le_featurewise_trace_feature_type 0
le_featurewise_trace_feature 
le_featurewise_trace_interval 0
le_featurewise_trace_record_count 0
le_featurewise_trace_file_name 
le_featurewise_enable_score_plot 0
le_featurewise_plot_actions 
le_featurewise_plot_file_name 


[DEBUG] handlePhaseChange -> MAJOR reset (weights & contexts)
[DEBUG] handlePhaseChange() invoked with level = 2
[DEBUG] handlePhaseChange -> MAJOR reset (weights & contexts)
[DEBUG] handlePhaseChange() invoked with level = 2
[DEBUG] handlePhaseChange -> MAJOR reset (weights & contexts)
[DEBUG] handlePhaseChange() invoked with level = 2
[DEBUG] handlePhaseChange -> MAJOR reset (weights & contexts)
[DEBUG] handlePhaseChange() invoked with level = 2
[DEBUG] handlePhaseChange -> MAJOR reset (weights & contexts)
[DEBUG] handlePhaseChange() invoked with level = 2
[DEBUG] handlePhaseChange -> MAJOR reset (weights & contexts)
[DEBUG] handlePhaseChange() invoked with level = 2
[DEBUG] handlePhaseChange -> MAJOR reset (weights & contexts)
[DEBUG] handlePhaseChange() invoked with level = 2
[DEBUG] handlePhaseChange -> MAJOR reset (weights & contexts)
[DEBUG] handlePhaseChange() invoked with level = 2
[DEBUG] handlePhaseChange -> MAJOR reset (weights & contexts)
[DEBUG] handlePhaseChange() invoked with level = 2
[DEBUG] handlePhaseChange -> MAJOR reset (weights & contexts)
[DEBUG] handlePhaseChange() invoked with level = 2
[DEBUG] handlePhaseChange -> MAJOR reset (weights & contexts)
[DEBUG] handlePhaseChange() invoked with level = 2
[DEBUG] handlePhaseChange -> MAJOR reset (weights & contexts)
[DEBUG] handlePhaseChange() invoked with level = 2
[DEBUG] handlePhaseChange -> MAJOR reset (weights & contexts)
[DEBUG] handlePhaseChange() invoked with level = 2
[DEBUG] handlePhaseChange -> MAJOR reset (weights & contexts)
[DEBUG] handlePhaseChange() invoked with level = 2
[DEBUG] handlePhaseChange -> MAJOR reset (weights & contexts)
[DEBUG] handlePhaseChange() invoked with level = 2
[DEBUG] handlePhaseChange -> MAJOR reset (weights & contexts)
[DEBUG] handlePhaseChange() invoked with level = 2
[DEBUG] handlePhaseChange -> MAJOR reset (weights & contexts)
[DEBUG] handlePhaseChange() invoked with level = 2
[DEBUG] handlePhaseChange -> MAJOR reset (weights & contexts)
[DEBUG] handlePhaseChange() invoked with level = 2
[DEBUG] handlePhaseChange -> MAJOR reset (weights & contexts)
[DEBUG] handlePhaseChange() invoked with level = 2
[DEBUG] handlePhaseChange -> MAJOR reset (weights & contexts)
[DEBUG] handlePhaseChange() invoked with level = 2
[DEBUG] handlePhaseChange -> MAJOR reset (weights & contexts)
[DEBUG] handlePhaseChange() invoked with level = 2
[DEBUG] handlePhaseChange -> MAJOR reset (weights & contexts)
[DEBUG] handlePhaseChange() invoked with level = 2
[DEBUG] handlePhaseChange -> MAJOR reset (weights & contexts)
[DEBUG] handlePhaseChange() invoked with level = 2
[DEBUG] handlePhaseChange -> MAJOR reset (weights & contexts)
[DEBUG] handlePhaseChange() invoked with level = 2
[DEBUG] handlePhaseChange -> MAJOR reset (weights & contexts)
[DEBUG] handlePhaseChange() invoked with level = 2
[DEBUG] handlePhaseChange -> MAJOR reset (weights & contexts)
[DEBUG] handlePhaseChange() invoked with level = 2
[DEBUG] handlePhaseChange -> MAJOR reset (weights & contexts)
[DEBUG] handlePhaseChange() invoked with level = 2
[DEBUG] handlePhaseChange -> MAJOR reset (weights & contexts)
[DEBUG] handlePhaseChange() invoked with level = 2
[DEBUG] handlePhaseChange -> MAJOR reset (weights & contexts)
[DEBUG] handlePhaseChange() invoked with level = 2
[DEBUG] handlePhaseChange -> MAJOR reset (weights & contexts)
[DEBUG] handlePhaseChange() invoked with level = 2
[DEBUG] handlePhaseChange -> MAJOR reset (weights & contexts)
[DEBUG] handlePhaseChange() invoked with level = 2
[DEBUG] handlePhaseChange -> MAJOR reset (weights & contexts)
[DEBUG] handlePhaseChange() invoked with level = 2
[DEBUG] handlePhaseChange -> MAJOR reset (weights & contexts)
[DEBUG] handlePhaseChange() invoked with level = 2
[DEBUG] handlePhaseChange -> MAJOR reset (weights & contexts)
[DEBUG] handlePhaseChange() invoked with level = 2
[DEBUG] handlePhaseChange -> MAJOR reset (weights & contexts)
[DEBUG] handlePhaseChange() invoked with level = 2
[DEBUG] handlePhaseChange -> MAJOR reset (weights & contexts)
[DEBUG] handlePhaseChange() invoked with level = 2
[DEBUG] handlePhaseChange -> MAJOR reset (weights & contexts)
[DEBUG] handlePhaseChange() invoked with level = 2
[DEBUG] handlePhaseChange -> MAJOR reset (weights & contexts)
[DEBUG] handlePhaseChange() invoked with level = 2
[DEBUG] handlePhaseChange -> MAJOR reset (weights & contexts)
[DEBUG] handlePhaseChange() invoked with level = 2
[DEBUG] handlePhaseChange -> MAJOR reset (weights & contexts)
[DEBUG] handlePhaseChange() invoked with level = 2
[DEBUG] handlePhaseChange -> MAJOR reset (weights & contexts)
[DEBUG] handlePhaseChange() invoked with level = 2
[DEBUG] handlePhaseChange -> MAJOR reset (weights & contexts)
[DEBUG] handlePhaseChange() invoked with level = 2
[DEBUG] handlePhaseChange -> MAJOR reset (weights & contexts)
[DEBUG] handlePhaseChange() invoked with level = 2
[DEBUG] handlePhaseChange -> MAJOR reset (weights & contexts)
[DEBUG] handlePhaseChange() invoked with level = 2
[DEBUG] handlePhaseChange -> MAJOR reset (weights & contexts)
[DEBUG] handlePhaseChange() invoked with level = 2
[DEBUG] handlePhaseChange -> MAJOR reset (weights & contexts)
[DEBUG] handlePhaseChange() invoked with level = 2
[DEBUG] handlePhaseChange -> MAJOR reset (weights & contexts)
[DEBUG] handlePhaseChange() invoked with level = 2
[DEBUG] handlePhaseChange -> MAJOR reset (weights & contexts)
[DEBUG] handlePhaseChange() invoked with level = 2
[DEBUG] handlePhaseChange -> MAJOR reset (weights & contexts)
[DEBUG] handlePhaseChange() invoked with level = 2
[DEBUG] handlePhaseChange -> MAJOR reset (weights & contexts)
[DEBUG] handlePhaseChange() invoked with level = 2
[DEBUG] handlePhaseChange -> MAJOR reset (weights & contexts)
[DEBUG] handlePhaseChange() invoked with level = 2
[DEBUG] handlePhaseChange -> MAJOR reset (weights & contexts)
[DEBUG] handlePhaseChange() invoked with level = 2
[DEBUG] handlePhaseChange -> MAJOR reset (weights & contexts)
[DEBUG] handlePhaseChange() invoked with level = 2
[DEBUG] handlePhaseChange -> MAJOR reset (weights & contexts)
[DEBUG] handlePhaseChange() invoked with level = 2
[DEBUG] handlePhaseChange -> MAJOR reset (weights & contexts)
[DEBUG] handlePhaseChange() invoked with level = 2
[DEBUG] handlePhaseChange -> MAJOR reset (weights & contexts)
[DEBUG] handlePhaseChange() invoked with level = 2
[DEBUG] handlePhaseChange -> MAJOR reset (weights & contexts)
[DEBUG] handlePhaseChange() invoked with level = 2
[DEBUG] handlePhaseChange -> MAJOR reset (weights & contexts)
[DEBUG] handlePhaseChange() invoked with level = 2
[DEBUG] handlePhaseChange -> MAJOR reset (weights & contexts)
[DEBUG] handlePhaseChange() invoked with level = 2
[DEBUG] handlePhaseChange -> MAJOR reset (weights & contexts)
[DEBUG] handlePhaseChange() invoked with level = 2
[DEBUG] handlePhaseChange -> MAJOR reset (weights & contexts)
[DEBUG] handlePhaseChange() invoked with level = 2
[DEBUG] handlePhaseChange -> MAJOR reset (weights & contexts)
[DEBUG] handlePhaseChange() invoked with level = 2
[DEBUG] handlePhaseChange -> MAJOR reset (weights & contexts)
[DEBUG] handlePhaseChange() invoked with level = 2
[DEBUG] handlePhaseChange -> MAJOR reset (weights & contexts)
[DEBUG] handlePhaseChange() invoked with level = 2
[DEBUG] handlePhaseChange -> MAJOR reset (weights & contexts)
[DEBUG] handlePhaseChange() invoked with level = 2
[DEBUG] handlePhaseChange -> MAJOR reset (weights & contexts)
[DEBUG] handlePhaseChange() invoked with level = 2
[DEBUG] handlePhaseChange -> MAJOR reset (weights & contexts)
[DEBUG] handlePhaseChange() invoked with level = 2
[DEBUG] handlePhaseChange -> MAJOR reset (weights & contexts)
[DEBUG] handlePhaseChange() invoked with level = 2
[DEBUG] handlePhaseChange -> MAJOR reset (weights & contexts)
[DEBUG] handlePhaseChange() invoked with level = 2
[DEBUG] handlePhaseChange -> MAJOR reset (weights & contexts)
[DEBUG] handlePhaseChange() invoked with level = 2
[DEBUG] handlePhaseChange -> MAJOR reset (weights & contexts)
[DEBUG] handlePhaseChange() invoked with level = 2
[DEBUG] handlePhaseChange -> MAJOR reset (weights & contexts)
[DEBUG] handlePhaseChange() invoked with level = 2
[DEBUG] handlePhaseChange -> MAJOR reset (weights & contexts)
[DEBUG] handlePhaseChange() invoked with level = 2
[DEBUG] handlePhaseChange -> MAJOR reset (weights & contexts)
[DEBUG] handlePhaseChange() invoked with level = 2
[DEBUG] handlePhaseChange -> MAJOR reset (weights & contexts)
[DEBUG] handlePhaseChange() invoked with level = 2
[DEBUG] handlePhaseChange -> MAJOR reset (weights & contexts)
[DEBUG] handlePhaseChange() invoked with level = 2
[DEBUG] handlePhaseChange -> MAJOR reset (weights & contexts)
[DEBUG] handlePhaseChange() invoked with level = 2
[DEBUG] handlePhaseChange -> MAJOR reset (weights & contexts)
[DEBUG] handlePhaseChange() invoked with level = 2
[DEBUG] handlePhaseChange -> MAJOR reset (weights & contexts)
[DEBUG] handlePhaseChange() invoked with level = 2
[DEBUG] handlePhaseChange -> MAJOR reset (weights & contexts)
[DEBUG] handlePhaseChange() invoked with level = 2
[DEBUG] handlePhaseChange -> MAJOR reset (weights & contexts)
[DEBUG] handlePhaseChange() invoked with level = 2
[DEBUG] handlePhaseChange -> MAJOR reset (weights & contexts)
[DEBUG] handlePhaseChange() invoked with level = 2
[DEBUG] handlePhaseChange -> MAJOR reset (weights & contexts)
[DEBUG] handlePhaseChange() invoked with level = 2
[DEBUG] handlePhaseChange -> MAJOR reset (weights & contexts)
[DEBUG] handlePhaseChange() invoked with level = 2
[DEBUG] handlePhaseChange -> MAJOR reset (weights & contexts)
[DEBUG] handlePhaseChange() invoked with level = 2
[DEBUG] handlePhaseChange -> MAJOR reset (weights & contexts)
[DEBUG] handlePhaseChange() invoked with level = 2
[DEBUG] handlePhaseChange -> MAJOR reset (weights & contexts)
[DEBUG] handlePhaseChange() invoked with level = 2
[DEBUG] handlePhaseChange -> MAJOR reset (weights & contexts)
[DEBUG] handlePhaseChange() invoked with level = 2
[DEBUG] handlePhaseChange -> MAJOR reset (weights & contexts)
[DEBUG] handlePhaseChange() invoked with level = 2
[DEBUG] handlePhaseChange -> MAJOR reset (weights & contexts)
[DEBUG] handlePhaseChange() invoked with level = 2
[DEBUG] handlePhaseChange -> MAJOR reset (weights & contexts)
[DEBUG] handlePhaseChange() invoked with level = 2
[DEBUG] handlePhaseChange -> MAJOR reset (weights & contexts)
[DEBUG] handlePhaseChange() invoked with level = 2
[DEBUG] handlePhaseChange -> MAJOR reset (weights & contexts)
[DEBUG] handlePhaseChange() invoked with level = 2
[DEBUG] handlePhaseChange -> MAJOR reset (weights & contexts)
[DEBUG] handlePhaseChange() invoked with level = 2
[DEBUG] handlePhaseChange -> MAJOR reset (weights & contexts)
[DEBUG] handlePhaseChange() invoked with level = 2
[DEBUG] handlePhaseChange -> MAJOR reset (weights & contexts)
[DEBUG] handlePhaseChange() invoked with level = 2
[DEBUG] handlePhaseChange -> MAJOR reset (weights & contexts)
[DEBUG] handlePhaseChange() invoked with level = 2
[DEBUG] handlePhaseChange -> MAJOR reset (weights & contexts)
[DEBUG] handlePhaseChange() invoked with level = 2
[DEBUG] handlePhaseChange -> MAJOR reset (weights & contexts)
[DEBUG] handlePhaseChange() invoked with level = 2
[DEBUG] handlePhaseChange -> MAJOR reset (weights & contexts)
[DEBUG] handlePhaseChange() invoked with level = 2
[DEBUG] handlePhaseChange -> MAJOR reset (weights & contexts)
[DEBUG] handlePhaseChange -> MAJOR reset (weights & contexts)
[DEBUG] handlePhaseChange -> MAJOR reset (weights & contexts)
[DEBUG] handlePhaseChange -> MAJOR reset (weights & contexts)
[DEBUG] handlePhaseChange -> MAJOR reset (weights & contexts)
[DEBUG] handlePhaseChange -> MAJOR reset (weights & contexts)
[DEBUG] handlePhaseChange -> MAJOR reset (weights & contexts)
[DEBUG] handlePhaseChange -> MAJOR reset (weights & contexts)
[DEBUG] handlePhaseChange -> MAJOR reset (weights & contexts)
[DEBUG] handlePhaseChange -> MAJOR reset (weights & contexts)
[DEBUG] handlePhaseChange -> MAJOR reset (weights & contexts)
[DEBUG] handlePhaseChange -> MAJOR reset (weights & contexts)
[DEBUG] handlePhaseChange -> MAJOR reset (weights & contexts)
[DEBUG] handlePhaseChange -> MAJOR reset (weights & contexts)
[DEBUG] handlePhaseChange -> MAJOR reset (weights & contexts)
[DEBUG] handlePhaseChange -> MAJOR reset (weights & contexts)
[DEBUG] handlePhaseChange -> MAJOR reset (weights & contexts)
[DEBUG] handlePhaseChange -> MAJOR reset (weights & contexts)
[DEBUG] handlePhaseChange -> MAJOR reset (weights & contexts)
[DEBUG] handlePhaseChange -> MAJOR reset (weights & contexts)
[DEBUG] handlePhaseChange -> MAJOR reset (weights & contexts)
[DEBUG] handlePhaseChange -> MAJOR reset (weights & contexts)
[DEBUG] handlePhaseChange -> MAJOR reset (weights & contexts)
[DEBUG] handlePhaseChange -> MAJOR reset (weights & contexts)
[DEBUG] handlePhaseChange -> MAJOR reset (weights & contexts)
[DEBUG] handlePhaseChange -> MAJOR reset (weights & contexts)
[DEBUG] handlePhaseChange -> MAJOR reset (weights & contexts)
[DEBUG] handlePhaseChange -> MAJOR reset (weights & contexts)
[DEBUG] handlePhaseChange -> MAJOR reset (weights & contexts)
[DEBUG] handlePhaseChange -> MAJOR reset (weights & contexts)
[DEBUG] handlePhaseChange -> MAJOR reset (weights & contexts)
[DEBUG] handlePhaseChange -> MAJOR reset (weights & contexts)
[DEBUG] handlePhaseChange -> MAJOR reset (weights & contexts)
[DEBUG] handlePhaseChange -> MAJOR reset (weights & contexts)
[DEBUG] handlePhaseChange -> MAJOR reset (weights & contexts)
[DEBUG] handlePhaseChange -> MAJOR reset (weights & contexts)
[DEBUG] handlePhaseChange -> MAJOR reset (weights & contexts)
[DEBUG] handlePhaseChange -> MAJOR reset (weights & contexts)
[DEBUG] handlePhaseChange -> MAJOR reset (weights & contexts)
[DEBUG] handlePhaseChange -> MAJOR reset (weights & contexts)
[DEBUG] handlePhaseChange -> MAJOR reset (weights & contexts)
[DEBUG] handlePhaseChange -> MAJOR reset (weights & contexts)
[DEBUG] handlePhaseChange -> MAJOR reset (weights & contexts)
[DEBUG] handlePhaseChange -> MAJOR reset (weights & contexts)
[DEBUG] handlePhaseChange -> MAJOR reset (weights & contexts)
[DEBUG] handlePhaseChange -> MAJOR reset (weights & contexts)
[DEBUG] handlePhaseChange -> MAJOR reset (weights & contexts)
[DEBUG] handlePhaseChange -> MAJOR reset (weights & contexts)
[DEBUG] handlePhaseChange -> MAJOR reset (weights & contexts)
[DEBUG] handlePhaseChange -> MAJOR reset (weights & contexts)
[DEBUG] handlePhaseChange -> MAJOR reset (weights & contexts)
[DEBUG] handlePhaseChange -> MAJOR reset (weights & contexts)
[DEBUG] handlePhaseChange -> MAJOR reset (weights & contexts)
[DEBUG] handlePhaseChange -> MAJOR reset (weights & contexts)
[DEBUG] handlePhaseChange -> MAJOR reset (weights & contexts)
[DEBUG] handlePhaseChange -> MAJOR reset (weights & contexts)
[DEBUG] handlePhaseChange -> MAJOR reset (weights & contexts)
[DEBUG] handlePhaseChange -> MAJOR reset (weights & contexts)
[DEBUG] handlePhaseChange -> MAJOR reset (weights & contexts)
[DEBUG] handlePhaseChange -> MAJOR reset (weights & contexts)
[DEBUG] handlePhaseChange -> MAJOR reset (weights & contexts)
[DEBUG] handlePhaseChange -> MAJOR reset (weights & contexts)
[DEBUG] handlePhaseChange -> MAJOR reset (weights & contexts)
[DEBUG] handlePhaseChange -> MAJOR reset (weights & contexts)
[DEBUG] handlePhaseChange -> MAJOR reset (weights & contexts)
[DEBUG] handlePhaseChange -> MAJOR reset (weights & contexts)
[DEBUG] handlePhaseChange -> MAJOR reset (weights & contexts)
[DEBUG] handlePhaseChange -> MAJOR reset (weights & contexts)
[DEBUG] handlePhaseChange -> MAJOR reset (weights & contexts)
[DEBUG] handlePhaseChange -> MAJOR reset (weights & contexts)
[DEBUG] handlePhaseChange -> MAJOR reset (weights & contexts)
[DEBUG] handlePhaseChange -> MAJOR reset (weights & contexts)
[DEBUG] handlePhaseChange -> MAJOR reset (weights & contexts)
[DEBUG] handlePhaseChange -> MAJOR reset (weights & contexts)
[DEBUG] handlePhaseChange -> MAJOR reset (weights & contexts)
[DEBUG] handlePhaseChange -> MAJOR reset (weights & contexts)
[DEBUG] handlePhaseChange -> MAJOR reset (weights & contexts)
[DEBUG] handlePhaseChange -> MAJOR reset (weights & contexts)
[DEBUG] handlePhaseChange -> MAJOR reset (weights & contexts)
[DEBUG] handlePhaseChange -> MAJOR reset (weights & contexts)
[DEBUG] handlePhaseChange -> MAJOR reset (weights & contexts)
[DEBUG] handlePhaseChange -> MAJOR reset (weights & contexts)
[DEBUG] handlePhaseChange -> MAJOR reset (weights & contexts)
[DEBUG] handlePhaseChange -> MAJOR reset (weights & contexts)
[DEBUG] handlePhaseChange -> MAJOR reset (weights & contexts)
[DEBUG] handlePhaseChange -> MAJOR reset (weights & contexts)
[DEBUG] handlePhaseChange -> MAJOR reset (weights & contexts)
[DEBUG] handlePhaseChange -> MAJOR reset (weights & contexts)
[DEBUG] handlePhaseChange -> MAJOR reset (weights & contexts)
[DEBUG] handlePhaseChange -> MAJOR reset (weights & contexts)
[DEBUG] handlePhaseChange -> MAJOR reset (weights & contexts)
[DEBUG] handlePhaseChange -> MAJOR reset (weights & contexts)
[DEBUG] handlePhaseChange -> MAJOR reset (weights & contexts)
[DEBUG] handlePhaseChange -> MAJOR reset (weights & contexts)
[DEBUG] handlePhaseChange -> MAJOR reset (weights & contexts)
[DEBUG] handlePhaseChange -> MAJOR reset (weights & contexts)
[DEBUG] handlePhaseChange -> MAJOR reset (weights & contexts)
[DEBUG] handlePhaseChange -> MAJOR reset (weights & contexts)
[DEBUG] handlePhaseChange -> MAJOR reset (weights & contexts)
[DEBUG] handlePhaseChange -> MAJOR reset (weights & contexts)
[DEBUG] handlePhaseChange -> MAJOR reset (weights & contexts)
[DEBUG] handlePhaseChange -> MAJOR reset (weights & contexts)
[DEBUG] handlePhaseChange -> MAJOR reset (weights & contexts)
[DEBUG] handlePhaseChange -> MAJOR reset (weights & contexts)
[DEBUG] handlePhaseChange -> MAJOR reset (weights & contexts)
[DEBUG] handlePhaseChange -> MAJOR reset (weights & contexts)
[DEBUG] handlePhaseChange -> MAJOR reset (weights & contexts)
[DEBUG] handlePhaseChange -> MAJOR reset (weights & contexts)
[DEBUG] handlePhaseChange -> MAJOR reset (weights & contexts)
[DEBUG] handlePhaseChange -> MAJOR reset (weights & contexts)
[DEBUG] handlePhaseChange -> MAJOR reset (weights & contexts)
[DEBUG] handlePhaseChange -> MAJOR reset (weights & contexts)
[DEBUG] handlePhaseChange -> MAJOR reset (weights & contexts)
[DEBUG] handlePhaseChange -> MAJOR reset (weights & contexts)
[DEBUG] handlePhaseChange -> MAJOR reset (weights & contexts)
[DEBUG] handlePhaseChange -> MAJOR reset (weights & contexts)
[DEBUG] handlePhaseChange -> MAJOR reset (weights & contexts)
[DEBUG] handlePhaseChange -> MAJOR reset (weights & contexts)
[DEBUG] handlePhaseChange -> MAJOR reset (weights & contexts)
[DEBUG] handlePhaseChange -> MAJOR reset (weights & contexts)
[DEBUG] handlePhaseChange -> MAJOR reset (weights & contexts)
[DEBUG] handlePhaseChange -> MAJOR reset (weights & contexts)
[DEBUG] handlePhaseChange -> MAJOR reset (weights & contexts)
[DEBUG] handlePhaseChange -> MAJOR reset (weights & contexts)
[DEBUG] handlePhaseChange -> MAJOR reset (weights & contexts)
[DEBUG] handlePhaseChange -> MAJOR reset (weights & contexts)
[DEBUG] handlePhaseChange -> MAJOR reset (weights & contexts)
[DEBUG] handlePhaseChange -> MAJOR reset (weights & contexts)
[DEBUG] handlePhaseChange -> MAJOR reset (weights & contexts)
[DEBUG] handlePhaseChange -> MAJOR reset (weights & contexts)
[DEBUG] handlePhaseChange -> MAJOR reset (weights & contexts)
[DEBUG] handlePhaseChange -> MAJOR reset (weights & contexts)
[DEBUG] handlePhaseChange -> MAJOR reset (weights & contexts)
[DEBUG] handlePhaseChange -> MAJOR reset (weights & contexts)
[DEBUG] handlePhaseChange -> MAJOR reset (weights & contexts)
[DEBUG] handlePhaseChange -> MAJOR reset (weights & contexts)
[DEBUG] handlePhaseChange -> MAJOR reset (weights & contexts)
[DEBUG] handlePhaseChange -> MAJOR reset (weights & contexts)
[DEBUG] handlePhaseChange -> MAJOR reset (weights & contexts)
[DEBUG] handlePhaseChange -> MAJOR reset (weights & contexts)
[DEBUG] handlePhaseChange -> MAJOR reset (weights & contexts)
[DEBUG] handlePhaseChange -> MAJOR reset (weights & contexts)
[DEBUG] handlePhaseChange -> MAJOR reset (weights & contexts)
[DEBUG] handlePhaseChange -> MAJOR reset (weights & contexts)
[DEBUG] handlePhaseChange -> MAJOR reset (weights & contexts)
[DEBUG] handlePhaseChange -> MAJOR reset (weights & contexts)
[DEBUG] handlePhaseChange -> MAJOR reset (weights & contexts)
[DEBUG] handlePhaseChange -> MAJOR reset (weights & contexts)
[DEBUG] handlePhaseChange -> MAJOR reset (weights & contexts)
[DEBUG] handlePhaseChange -> MAJOR reset (weights & contexts)
[DEBUG] handlePhaseChange -> MAJOR reset (weights & contexts)
[DEBUG] handlePhaseChange -> MAJOR reset (weights & contexts)
[DEBUG] handlePhaseChange -> MAJOR reset (weights & contexts)
[DEBUG] handlePhaseChange -> MAJOR reset (weights & contexts)
[DEBUG] handlePhaseChange -> MAJOR reset (weights & contexts)
[DEBUG] handlePhaseChange -> MAJOR reset (weights & contexts)
[DEBUG] handlePhaseChange -> MAJOR reset (weights & contexts)
[DEBUG] handlePhaseChange -> MAJOR reset (weights & contexts)
[DEBUG] handlePhaseChange -> MAJOR reset (weights & contexts)
[DEBUG] handlePhaseChange -> MAJOR reset (weights & contexts)
[DEBUG] handlePhaseChange -> MAJOR reset (weights & contexts)
[DEBUG] handlePhaseChange -> MAJOR reset (weights & contexts)
[DEBUG] handlePhaseChange -> MAJOR reset (weights & contexts)
[DEBUG] handlePhaseChange -> MAJOR reset (weights & contexts)
[DEBUG] handlePhaseChange -> MAJOR reset (weights & contexts)
[DEBUG] handlePhaseChange -> MAJOR reset (weights & contexts)
[DEBUG] handlePhaseChange -> MAJOR reset (weights & contexts)
[DEBUG] handlePhaseChange -> MAJOR reset (weights & contexts)
[DEBUG] handlePhaseChange -> MAJOR reset (weights & contexts)
[DEBUG] handlePhaseChange -> MAJOR reset (weights & contexts)
[DEBUG] handlePhaseChange -> MAJOR reset (weights & contexts)
[DEBUG] handlePhaseChange -> MAJOR reset (weights & contexts)
[DEBUG] handlePhaseChange -> MAJOR reset (weights & contexts)
[DEBUG] handlePhaseChange -> MAJOR reset (weights & contexts)
[DEBUG] handlePhaseChange -> MAJOR reset (weights & contexts)
[DEBUG] handlePhaseChange -> MAJOR reset (weights & contexts)
[DEBUG] handlePhaseChange -> MAJOR reset (weights & contexts)
[DEBUG] handlePhaseChange -> MAJOR reset (weights & contexts)
[DEBUG] handlePhaseChange -> MAJOR reset (weights & contexts)
[DEBUG] handlePhaseChange -> MAJOR reset (weights & contexts)
[DEBUG] handlePhaseChange -> MAJOR reset (weights & contexts)
[DEBUG] handlePhaseChange -> MAJOR reset (weights & contexts)
[DEBUG] handlePhaseChange -> MAJOR reset (weights & contexts)
[DEBUG] handlePhaseChange -> MAJOR reset (weights & contexts)
[DEBUG] handlePhaseChange -> MAJOR reset (weights & contexts)
[DEBUG] handlePhaseChange -> MAJOR reset (weights & contexts)
[DEBUG] handlePhaseChange -> MAJOR reset (weights & contexts)
[DEBUG] handlePhaseChange -> MAJOR reset (weights & contexts)
[DEBUG] handlePhaseChange -> MAJOR reset (weights & contexts)
[DEBUG] handlePhaseChange -> MAJOR reset (weights & contexts)
[DEBUG] handlePhaseChange -> MAJOR reset (weights & contexts)
[DEBUG] handlePhaseChange -> MAJOR reset (weights & contexts)
[DEBUG] handlePhaseChange -> MAJOR reset (weights & contexts)
[DEBUG] handlePhaseChange -> MAJOR reset (weights & contexts)
[DEBUG] handlePhaseChange -> MAJOR reset (weights & contexts)
[DEBUG] handlePhaseChange -> MAJOR reset (weights & contexts)
[DEBUG] handlePhaseChange -> MAJOR reset (weights & contexts)
[DEBUG] handlePhaseChange -> MAJOR reset (weights & contexts)
[DEBUG] handlePhaseChange -> MAJOR reset (weights & contexts)
[DEBUG] handlePhaseChange -> MAJOR reset (weights & contexts)
[DEBUG] handlePhaseChange -> MAJOR reset (weights & contexts)
[DEBUG] handlePhaseChange -> MAJOR reset (weights & contexts)
[DEBUG] handlePhaseChange -> MAJOR reset (weights & contexts)
[DEBUG] handlePhaseChange -> MAJOR reset (weights & contexts)
[DEBUG] handlePhaseChange -> MAJOR reset (weights & contexts)
[DEBUG] handlePhaseChange -> MAJOR reset (weights & contexts)
[DEBUG] handlePhaseChange -> MAJOR reset (weights & contexts)
[DEBUG] handlePhaseChange -> MAJOR reset (weights & contexts)
[DEBUG] handlePhaseChange -> MAJOR reset (weights & contexts)
[DEBUG] handlePhaseChange -> MAJOR reset (weights & contexts)
[DEBUG] handlePhaseChange -> MAJOR reset (weights & contexts)
[DEBUG] handlePhaseChange -> MAJOR reset (weights & contexts)
[DEBUG] handlePhaseChange -> MAJOR reset (weights & contexts)
[DEBUG] handlePhaseChange -> MAJOR reset (weights & contexts)
[DEBUG] handlePhaseChange -> MAJOR reset (weights & contexts)
[DEBUG] handlePhaseChange -> MAJOR reset (weights & contexts)
[DEBUG] handlePhaseChange -> MAJOR reset (weights & contexts)
[DEBUG] handlePhaseChange -> MAJOR reset (weights & contexts)
[DEBUG] handlePhaseChange -> MAJOR reset (weights & contexts)
[DEBUG] handlePhaseChange -> MAJOR reset (weights & contexts)
[DEBUG] handlePhaseChange -> MAJOR reset (weights & contexts)
[DEBUG] handlePhaseChange -> MAJOR reset (weights & contexts)
[DEBUG] handlePhaseChange -> MAJOR reset (weights & contexts)
[DEBUG] handlePhaseChange -> MAJOR reset (weights & contexts)
[DEBUG] handlePhaseChange -> MAJOR reset (weights & contexts)
[DEBUG] handlePhaseChange -> MAJOR reset (weights & contexts)
[DEBUG] handlePhaseChange -> MAJOR reset (weights & contexts)
[DEBUG] handlePhaseChange -> MAJOR reset (weights & contexts)
[DEBUG] handlePhaseChange -> MAJOR reset (weights & contexts)
[DEBUG] handlePhaseChange -> MAJOR reset (weights & contexts)
[DEBUG] handlePhaseChange -> MAJOR reset (weights & contexts)
[DEBUG] handlePhaseChange -> MAJOR reset (weights & contexts)
[DEBUG] handlePhaseChange -> MAJOR reset (weights & contexts)
[DEBUG] handlePhaseChange -> MAJOR reset (weights & contexts)
[DEBUG] handlePhaseChange -> MAJOR reset (weights & contexts)
[DEBUG] handlePhaseChange -> MAJOR reset (weights & contexts)
[DEBUG] handlePhaseChange -> MAJOR reset (weights & contexts)
[DEBUG] handlePhaseChange -> MAJOR reset (weights & contexts)
[DEBUG] handlePhaseChange -> MAJOR reset (weights & contexts)
[DEBUG] handlePhaseChange -> MAJOR reset (weights & contexts)
[DEBUG] handlePhaseChange -> MAJOR reset (weights & contexts)
[DEBUG] handlePhaseChange -> MAJOR reset (weights & contexts)
[DEBUG] handlePhaseChange -> MAJOR reset (weights & contexts)
[DEBUG] handlePhaseChange -> MAJOR reset (weights & contexts)
[DEBUG] handlePhaseChange -> MAJOR reset (weights & contexts)
[DEBUG] handlePhaseChange -> MAJOR reset (weights & contexts)
[DEBUG] handlePhaseChange -> MAJOR reset (weights & contexts)
[DEBUG] handlePhaseChange -> MAJOR reset (weights & contexts)
[DEBUG] handlePhaseChange -> MAJOR reset (weights & contexts)
[DEBUG] handlePhaseChange -> MAJOR reset (weights & contexts)
[DEBUG] handlePhaseChange -> MAJOR reset (weights & contexts)
[DEBUG] handlePhaseChange -> MAJOR reset (weights & contexts)
[DEBUG] handlePhaseChange -> MAJOR reset (weights & contexts)
[DEBUG] handlePhaseChange -> MAJOR reset (weights & contexts)
[DEBUG] handlePhaseChange -> MAJOR reset (weights & contexts)
[DEBUG] handlePhaseChange -> MAJOR reset (weights & contexts)
[DEBUG] handlePhaseChange -> MAJOR reset (weights & contexts)
[DEBUG] handlePhaseChange -> MAJOR reset (weights & contexts)
[DEBUG] handlePhaseChange -> MAJOR reset (weights & contexts)
[DEBUG] handlePhaseChange -> MAJOR reset (weights & contexts)
[DEBUG] handlePhaseChange -> MAJOR reset (weights & contexts)
[DEBUG] handlePhaseChange -> MAJOR reset (weights & contexts)
[DEBUG] handlePhaseChange -> MAJOR reset (weights & contexts)
[DEBUG] handlePhaseChange -> MAJOR reset (weights & contexts)
[DEBUG] handlePhaseChange -> MAJOR reset (weights & contexts)
[DEBUG] handlePhaseChange -> MAJOR reset (weights & contexts)
[DEBUG] handlePhaseChange -> MAJOR reset (weights & contexts)
[DEBUG] handlePhaseChange -> MAJOR reset (weights & contexts)
[DEBUG] handlePhaseChange -> MAJOR reset (weights & contexts)
[DEBUG] handlePhaseChange -> MAJOR reset (weights & contexts)
[DEBUG] handlePhaseChange -> MAJOR reset (weights & contexts)
[DEBUG] handlePhaseChange -> MAJOR reset (weights & contexts)
[DEBUG] handlePhaseChange -> MAJOR reset (weights & contexts)
[DEBUG] handlePhaseChange -> MAJOR reset (weights & contexts)
[DEBUG] handlePhaseChange -> MAJOR reset (weights & contexts)
[DEBUG] handlePhaseChange -> MAJOR reset (weights & contexts)
[DEBUG] handlePhaseChange -> MAJOR reset (weights & contexts)
[DEBUG] handlePhaseChange -> MAJOR reset (weights & contexts)
[DEBUG] handlePhaseChange -> MAJOR reset (weights & contexts)
[DEBUG] handlePhaseChange -> MAJOR reset (weights & contexts)
[DEBUG] handlePhaseChange -> MAJOR reset (weights & contexts)
[DEBUG] handlePhaseChange -> MAJOR reset (weights & contexts)
[DEBUG] handlePhaseChange -> MAJOR reset (weights & contexts)
[DEBUG] handlePhaseChange -> MAJOR reset (weights & contexts)
[DEBUG] handlePhaseChange -> MAJOR reset (weights & contexts)
[DEBUG] handlePhaseChange -> MAJOR reset (weights & contexts)
[DEBUG] handlePhaseChange -> MAJOR reset (weights & contexts)
[DEBUG] handlePhaseChange -> MAJOR reset (weights & contexts)
[DEBUG] handlePhaseChange -> MAJOR reset (weights & contexts)
[DEBUG] handlePhaseChange -> MAJOR reset (weights & contexts)
[DEBUG] handlePhaseChange -> MAJOR reset (weights & contexts)
[DEBUG] handlePhaseChange -> MAJOR reset (weights & contexts)
[DEBUG] handlePhaseChange -> MAJOR reset (weights & contexts)
[DEBUG] handlePhaseChange -> MAJOR reset (weights & contexts)
[DEBUG] handlePhaseChange -> MAJOR reset (weights & contexts)
[DEBUG] handlePhaseChange -> MAJOR reset (weights & contexts)
[DEBUG] handlePhaseChange -> MAJOR reset (weights & contexts)
[DEBUG] handlePhaseChange -> MAJOR reset (weights & contexts)
[DEBUG] handlePhaseChange -> MAJOR reset (weights & contexts)
[DEBUG] handlePhaseChange -> MAJOR reset (weights & contexts)
[DEBUG] handlePhaseChange -> MAJOR reset (weights & contexts)
[DEBUG] handlePhaseChange -> MAJOR reset (weights & contexts)
[DEBUG] handlePhaseChange -> MAJOR reset (weights & contexts)
[DEBUG] handlePhaseChange -> MAJOR reset (weights & contexts)
[DEBUG] handlePhaseChange -> MAJOR reset (weights & contexts)
[DEBUG] handlePhaseChange -> MAJOR reset (weights & contexts)
[DEBUG] handlePhaseChange -> MAJOR reset (weights & contexts)
[DEBUG] handlePhaseChange -> MAJOR reset (weights & contexts)
[DEBUG] handlePhaseChange -> MAJOR reset (weights & contexts)
[DEBUG] handlePhaseChange -> MAJOR reset (weights & contexts)
[DEBUG] handlePhaseChange -> MAJOR reset (weights & contexts)
[DEBUG] handlePhaseChange -> MAJOR reset (weights & contexts)
[DEBUG] handlePhaseChange -> MAJOR reset (weights & contexts)
[DEBUG] handlePhaseChange -> MAJOR reset (weights & contexts)
[DEBUG] handlePhaseChange -> MAJOR reset (weights & contexts)
[DEBUG] handlePhaseChange -> MAJOR reset (weights & contexts)
[DEBUG] handlePhaseChange -> MAJOR reset (weights & contexts)
[DEBUG] handlePhaseChange -> MAJOR reset (weights & contexts)
[DEBUG] handlePhaseChange -> MAJOR reset (weights & contexts)
[DEBUG] handlePhaseChange -> MAJOR reset (weights & contexts)
[DEBUG] handlePhaseChange -> MAJOR reset (weights & contexts)
[DEBUG] handlePhaseChange -> MAJOR reset (weights & contexts)
[DEBUG] handlePhaseChange -> MAJOR reset (weights & contexts)
[DEBUG] handlePhaseChange -> MAJOR reset (weights & contexts)
[DEBUG] handlePhaseChange -> MAJOR reset (weights & contexts)
[DEBUG] handlePhaseChange -> MAJOR reset (weights & contexts)
[DEBUG] handlePhaseChange -> MAJOR reset (weights & contexts)
[DEBUG] handlePhaseChange -> MAJOR reset (weights & contexts)
[DEBUG] handlePhaseChange -> MAJOR reset (weights & contexts)
[DEBUG] handlePhaseChange -> MAJOR reset (weights & contexts)
[DEBUG] handlePhaseChange -> MAJOR reset (weights & contexts)
[DEBUG] handlePhaseChange -> MAJOR reset (weights & contexts)
[DEBUG] handlePhaseChange -> MAJOR reset (weights & contexts)
[DEBUG] handlePhaseChange -> MAJOR reset (weights & contexts)
[DEBUG] handlePhaseChange -> MAJOR reset (weights & contexts)
[DEBUG] handlePhaseChange -> MAJOR reset (weights & contexts)
[DEBUG] handlePhaseChange -> MAJOR reset (weights & contexts)
[DEBUG] handlePhaseChange -> MAJOR reset (weights & contexts)
[DEBUG] handlePhaseChange -> MAJOR reset (weights & contexts)
[DEBUG] handlePhaseChange -> MAJOR reset (weights & contexts)
[DEBUG] handlePhaseChange -> MAJOR reset (weights & contexts)
[DEBUG] handlePhaseChange -> MAJOR reset (weights & contexts)
[DEBUG] handlePhaseChange -> MAJOR reset (weights & contexts)
[DEBUG] handlePhaseChange -> MAJOR reset (weights & contexts)
[DEBUG] handlePhaseChange -> MAJOR reset (weights & contexts)
[DEBUG] handlePhaseChange -> MAJOR reset (weights & contexts)
[DEBUG] handlePhaseChange -> MAJOR reset (weights & contexts)
[DEBUG] handlePhaseChange -> MAJOR reset (weights & contexts)
[DEBUG] handlePhaseChange -> MAJOR reset (weights & contexts)
[DEBUG] handlePhaseChange -> MAJOR reset (weights & contexts)
[DEBUG] handlePhaseChange -> MAJOR reset (weights & contexts)
[DEBUG] handlePhaseChange -> MAJOR reset (weights & contexts)
[DEBUG] handlePhaseChange -> MAJOR reset (weights & contexts)
[DEBUG] handlePhaseChange -> MAJOR reset (weights & contexts)
[DEBUG] handlePhaseChange -> MAJOR reset (weights & contexts)
[DEBUG] handlePhaseChange -> MAJOR reset (weights & contexts)
[DEBUG] handlePhaseChange -> MAJOR reset (weights & contexts)
[DEBUG] handlePhaseChange -> MAJOR reset (weights & contexts)
[DEBUG] handlePhaseChange -> MAJOR reset (weights & contexts)
[DEBUG] handlePhaseChange -> MAJOR reset (weights & contexts)
[DEBUG] handlePhaseChange -> MAJOR reset (weights & contexts)
[DEBUG] handlePhaseChange -> MAJOR reset (weights & contexts)
[DEBUG] handlePhaseChange -> MAJOR reset (weights & contexts)
[DEBUG] handlePhaseChange -> MAJOR reset (weights & contexts)
[DEBUG] handlePhaseChange -> MAJOR reset (weights & contexts)
[DEBUG] handlePhaseChange -> MAJOR reset (weights & contexts)
[DEBUG] handlePhaseChange -> MAJOR reset (weights & contexts)
[DEBUG] handlePhaseChange -> MAJOR reset (weights & contexts)
[DEBUG] handlePhaseChange -> MAJOR reset (weights & contexts)
[DEBUG] handlePhaseChange -> MAJOR reset (weights & contexts)
[DEBUG] handlePhaseChange -> MAJOR reset (weights & contexts)
[DEBUG] handlePhaseChange -> MAJOR reset (weights & contexts)
[DEBUG] handlePhaseChange -> MAJOR reset (weights & contexts)
[DEBUG] handlePhaseChange -> MAJOR reset (weights & contexts)
[DEBUG] handlePhaseChange -> MAJOR reset (weights & contexts)
[DEBUG] handlePhaseChange -> MAJOR reset (weights & contexts)
[DEBUG] handlePhaseChange -> MAJOR reset (weights & contexts)
[DEBUG] handlePhaseChange -> MAJOR reset (weights & contexts)
[DEBUG] handlePhaseChange -> MAJOR reset (weights & contexts)
[DEBUG] handlePhaseChange -> MAJOR reset (weights & contexts)
[DEBUG] handlePhaseChange -> MAJOR reset (weights & contexts)
[DEBUG] handlePhaseChange -> MAJOR reset (weights & contexts)
[DEBUG] handlePhaseChange -> MAJOR reset (weights & contexts)
[DEBUG] handlePhaseChange -> MAJOR reset (weights & contexts)
[DEBUG] handlePhaseChange -> MAJOR reset (weights & contexts)
[DEBUG] handlePhaseChange -> MAJOR reset (weights & contexts)
[DEBUG] handlePhaseChange -> MAJOR reset (weights & contexts)
[DEBUG] handlePhaseChange -> MAJOR reset (weights & contexts)
[DEBUG] handlePhaseChange -> MAJOR reset (weights & contexts)
[DEBUG] handlePhaseChange -> MAJOR reset (weights & contexts)
[DEBUG] handlePhaseChange -> MAJOR reset (weights & contexts)
[DEBUG] handlePhaseChange -> MAJOR reset (weights & contexts)
[DEBUG] handlePhaseChange -> MAJOR reset (weights & contexts)
[DEBUG] handlePhaseChange -> MAJOR reset (weights & contexts)
[DEBUG] handlePhaseChange -> MAJOR reset (weights & contexts)
[DEBUG] handlePhaseChange -> MAJOR reset (weights & contexts)
[DEBUG] handlePhaseChange -> MAJOR reset (weights & contexts)
[DEBUG] handlePhaseChange -> MAJOR reset (weights & contexts)
[DEBUG] handlePhaseChange -> MAJOR reset (weights & contexts)
[DEBUG] handlePhaseChange -> MAJOR reset (weights & contexts)
[DEBUG] handlePhaseChange -> MAJOR reset (weights & contexts)
[DEBUG] handlePhaseChange -> MAJOR reset (weights & contexts)
[DEBUG] handlePhaseChange -> MAJOR reset (weights & contexts)
[DEBUG] handlePhaseChange -> MAJOR reset (weights & contexts)
[DEBUG] handlePhaseChange -> MAJOR reset (weights & contexts)
[DEBUG] handlePhaseChange -> MAJOR reset (weights & contexts)
[DEBUG] handlePhaseChange -> MAJOR reset (weights & contexts)
[DEBUG] handlePhaseChange -> MAJOR reset (weights & contexts)
[DEBUG] handlePhaseChange -> MAJOR reset (weights & contexts)
[DEBUG] handlePhaseChange -> MAJOR reset (weights & contexts)
[DEBUG] handlePhaseChange -> MAJOR reset (weights & contexts)
[DEBUG] handlePhaseChange -> MAJOR reset (weights & contexts)
[DEBUG] handlePhaseChange -> MAJOR reset (weights & contexts)
[DEBUG] handlePhaseChange -> MAJOR reset (weights & contexts)
[DEBUG] handlePhaseChange -> MAJOR reset (weights & contexts)
[DEBUG] handlePhaseChange -> MAJOR reset (weights & contexts)
[DEBUG] handlePhaseChange -> MAJOR reset (weights & contexts)
[DEBUG] handlePhaseChange -> MAJOR reset (weights & contexts)
[DEBUG] handlePhaseChange -> MAJOR reset (weights & contexts)
[DEBUG] handlePhaseChange -> MAJOR reset (weights & contexts)
[DEBUG] handlePhaseChange -> MAJOR reset (weights & contexts)
[DEBUG] handlePhaseChange -> MAJOR reset (weights & contexts)
[DEBUG] handlePhaseChange -> MAJOR reset (weights & contexts)
[DEBUG] handlePhaseChange -> MAJOR reset (weights & contexts)
[DEBUG] handlePhaseChange -> MAJOR reset (weights & contexts)
[DEBUG] handlePhaseChange -> MAJOR reset (weights & contexts)
[DEBUG] handlePhaseChange -> MAJOR reset (weights & contexts)
[DEBUG] handlePhaseChange -> MAJOR reset (weights & contexts)
[DEBUG] handlePhaseChange -> MAJOR reset (weights & contexts)
[DEBUG] handlePhaseChange -> MAJOR reset (weights & contexts)
[DEBUG] handlePhaseChange -> MAJOR reset (weights & contexts)
[DEBUG] handlePhaseChange -> MAJOR reset (weights & contexts)
[DEBUG] handlePhaseChange -> MAJOR reset (weights & contexts)
[DEBUG] handlePhaseChange -> MAJOR reset (weights & contexts)
[DEBUG] handlePhaseChange -> MAJOR reset (weights & contexts)
[DEBUG] handlePhaseChange -> MAJOR reset (weights & contexts)
[DEBUG] handlePhaseChange -> MAJOR reset (weights & contexts)
[DEBUG] handlePhaseChange -> MAJOR reset (weights & contexts)
[DEBUG] handlePhaseChange -> MAJOR reset (weights & contexts)
[DEBUG] handlePhaseChange -> MAJOR reset (weights & contexts)
[DEBUG] handlePhaseChange -> MAJOR reset (weights & contexts)
[DEBUG] handlePhaseChange -> MAJOR reset (weights & contexts)
[DEBUG] handlePhaseChange -> MAJOR reset (weights & contexts)
[DEBUG] handlePhaseChange -> MAJOR reset (weights & contexts)
[DEBUG] handlePhaseChange -> MAJOR reset (weights & contexts)
[DEBUG] handlePhaseChange -> MAJOR reset (weights & contexts)
[DEBUG] handlePhaseChange -> MAJOR reset (weights & contexts)
[DEBUG] handlePhaseChange -> MAJOR reset (weights & contexts)
[DEBUG] handlePhaseChange -> MAJOR reset (weights & contexts)
[DEBUG] handlePhaseChange -> MAJOR reset (weights & contexts)
[DEBUG] handlePhaseChange -> MAJOR reset (weights & contexts)
[DEBUG] handlePhaseChange -> MAJOR reset (weights & contexts)
[DEBUG] handlePhaseChange -> MAJOR reset (weights & contexts)
[DEBUG] handlePhaseChange -> MAJOR reset (weights & contexts)
[DEBUG] handlePhaseChange -> MAJOR reset (weights & contexts)
[DEBUG] handlePhaseChange -> MAJOR reset (weights & contexts)
[DEBUG] handlePhaseChange -> MAJOR reset (weights & contexts)
[DEBUG] handlePhaseChange -> MAJOR reset (weights & contexts)
[DEBUG] handlePhaseChange -> MAJOR reset (weights & contexts)
[DEBUG] handlePhaseChange -> MAJOR reset (weights & contexts)
[DEBUG] handlePhaseChange -> MAJOR reset (weights & contexts)
[DEBUG] handlePhaseChange -> MAJOR reset (weights & contexts)
[DEBUG] handlePhaseChange -> MAJOR reset (weights & contexts)
[DEBUG] handlePhaseChange -> MAJOR reset (weights & contexts)
[DEBUG] handlePhaseChange -> MAJOR reset (weights & contexts)
[DEBUG] handlePhaseChange -> MAJOR reset (weights & contexts)
[DEBUG] handlePhaseChange -> MAJOR reset (weights & contexts)
[DEBUG] handlePhaseChange -> MAJOR reset (weights & contexts)
[DEBUG] handlePhaseChange -> MAJOR reset (weights & contexts)
[DEBUG] handlePhaseChange -> MAJOR reset (weights & contexts)
[DEBUG] handlePhaseChange -> MAJOR reset (weights & contexts)
[DEBUG] handlePhaseChange -> MAJOR reset (weights & contexts)
[DEBUG] handlePhaseChange -> MAJOR reset (weights & contexts)
[DEBUG] handlePhaseChange -> MAJOR reset (weights & contexts)
[DEBUG] handlePhaseChange -> MAJOR reset (weights & contexts)
[DEBUG] handlePhaseChange -> MAJOR reset (weights & contexts)
[DEBUG] handlePhaseChange -> MAJOR reset (weights & contexts)
[DEBUG] handlePhaseChange -> MAJOR reset (weights & contexts)
[DEBUG] handlePhaseChange -> MAJOR reset (weights & contexts)
[DEBUG] handlePhaseChange -> MAJOR reset (weights & contexts)
[DEBUG] handlePhaseChange -> MAJOR reset (weights & contexts)
[DEBUG] handlePhaseChange -> MAJOR reset (weights & contexts)
[DEBUG] handlePhaseChange -> MAJOR reset (weights & contexts)
[DEBUG] handlePhaseChange -> MAJOR reset (weights & contexts)
[DEBUG] handlePhaseChange -> MAJOR reset (weights & contexts)
[DEBUG] handlePhaseChange -> MAJOR reset (weights & contexts)
[DEBUG] handlePhaseChange -> MAJOR reset (weights & contexts)
[DEBUG] handlePhaseChange -> MAJOR reset (weights & contexts)
[DEBUG] handlePhaseChange -> MAJOR reset (weights & contexts)
[DEBUG] handlePhaseChange -> MAJOR reset (weights & contexts)
[DEBUG] handlePhaseChange -> MAJOR reset (weights & contexts)
[DEBUG] handlePhaseChange -> MAJOR reset (weights & contexts)
[DEBUG] handlePhaseChange -> MAJOR reset (weights & contexts)
[DEBUG] handlePhaseChange -> MAJOR reset (weights & contexts)
[DEBUG] handlePhaseChange -> MAJOR reset (weights & contexts)
[DEBUG] handlePhaseChange -> MAJOR reset (weights & contexts)
[DEBUG] handlePhaseChange -> MAJOR reset (weights & contexts)
[DEBUG] handlePhaseChange -> MAJOR reset (weights & contexts)
[DEBUG] handlePhaseChange -> MAJOR reset (weights & contexts)
[DEBUG] handlePhaseChange -> MAJOR reset (weights & contexts)
[DEBUG] handlePhaseChange -> MAJOR reset (weights & contexts)
[DEBUG] handlePhaseChange -> MAJOR reset (weights & contexts)
[DEBUG] handlePhaseChange -> MAJOR reset (weights & contexts)
[DEBUG] handlePhaseChange -> MAJOR reset (weights & contexts)
[DEBUG] handlePhaseChange -> MAJOR reset (weights & contexts)
[DEBUG] handlePhaseChange -> MAJOR reset (weights & contexts)
[DEBUG] handlePhaseChange -> MAJOR reset (weights & contexts)
[DEBUG] handlePhaseChange -> MAJOR reset (weights & contexts)
[DEBUG] handlePhaseChange -> MAJOR reset (weights & contexts)
[DEBUG] handlePhaseChange -> MAJOR reset (weights & contexts)
[DEBUG] handlePhaseChange -> MAJOR reset (weights & contexts)
[DEBUG] handlePhaseChange -> MAJOR reset (weights & contexts)
[DEBUG] handlePhaseChange -> MAJOR reset (weights & contexts)
[DEBUG] handlePhaseChange -> MAJOR reset (weights & contexts)
[DEBUG] handlePhaseChange -> MAJOR reset (weights & contexts)
[DEBUG] handlePhaseChange -> MAJOR reset (weights & contexts)
[DEBUG] handlePhaseChange -> MAJOR reset (weights & contexts)
[DEBUG] handlePhaseChange -> MAJOR reset (weights & contexts)
[DEBUG] handlePhaseChange -> MAJOR reset (weights & contexts)
[DEBUG] handlePhaseChange -> MAJOR reset (weights & contexts)
[DEBUG] handlePhaseChange -> MAJOR reset (weights & contexts)
[DEBUG] handlePhaseChange -> MAJOR reset (weights & contexts)
[DEBUG] handlePhaseChange -> MAJOR reset (weights & contexts)
[DEBUG] handlePhaseChange -> MAJOR reset (weights & contexts)
[DEBUG] handlePhaseChange -> MAJOR reset (weights & contexts)
[DEBUG] handlePhaseChange -> MAJOR reset (weights & contexts)
[DEBUG] handlePhaseChange -> MAJOR reset (weights & contexts)
[DEBUG] handlePhaseChange -> MAJOR reset (weights & contexts)
[DEBUG] handlePhaseChange -> MAJOR reset (weights & contexts)
[DEBUG] handlePhaseChange -> MAJOR reset (weights & contexts)
[DEBUG] handlePhaseChange -> MAJOR reset (weights & contexts)
[DEBUG] handlePhaseChange -> MAJOR reset (weights & contexts)
[DEBUG] handlePhaseChange -> MAJOR reset (weights & contexts)
[DEBUG] handlePhaseChange -> MAJOR reset (weights & contexts)
[DEBUG] handlePhaseChange -> MAJOR reset (weights & contexts)
[DEBUG] handlePhaseChange -> MAJOR reset (weights & contexts)
[DEBUG] handlePhaseChange -> MAJOR reset (weights & contexts)
[DEBUG] handlePhaseChange -> MAJOR reset (weights & contexts)
[DEBUG] handlePhaseChange -> MAJOR reset (weights & contexts)
[DEBUG] handlePhaseChange -> MAJOR reset (weights & contexts)
[DEBUG] handlePhaseChange -> MAJOR reset (weights & contexts)
[DEBUG] handlePhaseChange -> MAJOR reset (weights & contexts)
[DEBUG] handlePhaseChange -> MAJOR reset (weights & contexts)
[DEBUG] handlePhaseChange -> MAJOR reset (weights & contexts)
[DEBUG] handlePhaseChange -> MAJOR reset (weights & contexts)
[DEBUG] handlePhaseChange -> MAJOR reset (weights & contexts)
[DEBUG] handlePhaseChange -> MAJOR reset (weights & contexts)
[DEBUG] handlePhaseChange -> MAJOR reset (weights & contexts)
[DEBUG] handlePhaseChange -> MAJOR reset (weights & contexts)
[DEBUG] handlePhaseChange -> MAJOR reset (weights & contexts)
[DEBUG] handlePhaseChange -> MAJOR reset (weights & contexts)
[DEBUG] handlePhaseChange -> MAJOR reset (weights & contexts)
[DEBUG] handlePhaseChange -> MAJOR reset (weights & contexts)
[DEBUG] handlePhaseChange -> MAJOR reset (weights & contexts)
[DEBUG] handlePhaseChange -> MAJOR reset (weights & contexts)
[DEBUG] handlePhaseChange -> MAJOR reset (weights & contexts)
[DEBUG] handlePhaseChange -> MAJOR reset (weights & contexts)
[DEBUG] handlePhaseChange -> MAJOR reset (weights & contexts)
[DEBUG] handlePhaseChange -> MAJOR reset (weights & contexts)
[DEBUG] handlePhaseChange -> MAJOR reset (weights & contexts)
[DEBUG] handlePhaseChange -> MAJOR reset (weights & contexts)
[DEBUG] handlePhaseChange -> MAJOR reset (weights & contexts)
[DEBUG] handlePhaseChange -> MAJOR reset (weights & contexts)
[DEBUG] handlePhaseChange -> MAJOR reset (weights & contexts)
[DEBUG] handlePhaseChange -> MAJOR reset (weights & contexts)
[DEBUG] handlePhaseChange -> MAJOR reset (weights & contexts)
[DEBUG] handlePhaseChange -> MAJOR reset (weights & contexts)
[DEBUG] handlePhaseChange -> MAJOR reset (weights & contexts)
[DEBUG] handlePhaseChange -> MAJOR reset (weights & contexts)
[DEBUG] handlePhaseChange -> MAJOR reset (weights & contexts)
[DEBUG] handlePhaseChange -> MAJOR reset (weights & contexts)
[DEBUG] handlePhaseChange -> MAJOR reset (weights & contexts)
[DEBUG] handlePhaseChange -> MAJOR reset (weights & contexts)
[DEBUG] handlePhaseChange -> MAJOR reset (weights & contexts)
[DEBUG] handlePhaseChange -> MAJOR reset (weights & contexts)
[DEBUG] handlePhaseChange -> MAJOR reset (weights & contexts)
[DEBUG] handlePhaseChange -> MAJOR reset (weights & contexts)
[DEBUG] handlePhaseChange -> MAJOR reset (weights & contexts)
[DEBUG] handlePhaseChange -> MAJOR reset (weights & contexts)
[DEBUG] handlePhaseChange -> MAJOR reset (weights & contexts)
[DEBUG] handlePhaseChange -> MAJOR reset (weights & contexts)
[DEBUG] handlePhaseChange -> MAJOR reset (weights & contexts)
[DEBUG] handlePhaseChange -> MAJOR reset (weights & contexts)
[DEBUG] handlePhaseChange -> MAJOR reset (weights & contexts)
[DEBUG] handlePhaseChange -> MAJOR reset (weights & contexts)
[DEBUG] handlePhaseChange -> MAJOR reset (weights & contexts)
[DEBUG] handlePhaseChange -> MAJOR reset (weights & contexts)
[DEBUG] handlePhaseChange -> MAJOR reset (weights & contexts)
[DEBUG] handlePhaseChange -> MAJOR reset (weights & contexts)
[DEBUG] handlePhaseChange -> MAJOR reset (weights & contexts)
[DEBUG] handlePhaseChange -> MAJOR reset (weights & contexts)
[DEBUG] handlePhaseChange -> MAJOR reset (weights & contexts)
[DEBUG] handlePhaseChange -> MAJOR reset (weights & contexts)
[DEBUG] handlePhaseChange -> MAJOR reset (weights & contexts)
[DEBUG] handlePhaseChange -> MAJOR reset (weights & contexts)
[DEBUG] handlePhaseChange -> MAJOR reset (weights & contexts)
[DEBUG] handlePhaseChange -> MAJOR reset (weights & contexts)
[DEBUG] handlePhaseChange -> MAJOR reset (weights & contexts)
[DEBUG] handlePhaseChange -> MAJOR reset (weights & contexts)
[DEBUG] handlePhaseChange -> MAJOR reset (weights & contexts)
[DEBUG] handlePhaseChange -> MAJOR reset (weights & contexts)
[DEBUG] handlePhaseChange -> MAJOR reset (weights & contexts)
[DEBUG] handlePhaseChange -> MAJOR reset (weights & contexts)
[DEBUG] handlePhaseChange -> MAJOR reset (weights & contexts)
[DEBUG] handlePhaseChange -> MAJOR reset (weights & contexts)
[DEBUG] handlePhaseChange -> MAJOR reset (weights & contexts)
[DEBUG] handlePhaseChange -> MAJOR reset (weights & contexts)
[DEBUG] handlePhaseChange -> MAJOR reset (weights & contexts)
[DEBUG] handlePhaseChange -> MAJOR reset (weights & contexts)
[DEBUG] handlePhaseChange -> MAJOR reset (weights & contexts)
[DEBUG] handlePhaseChange -> MAJOR reset (weights & contexts)
[DEBUG] handlePhaseChange -> MAJOR reset (weights & contexts)
[DEBUG] handlePhaseChange -> MAJOR reset (weights & contexts)
[DEBUG] handlePhaseChange -> MAJOR reset (weights & contexts)
[DEBUG] handlePhaseChange -> MAJOR reset (weights & contexts)
[DEBUG] handlePhaseChange -> MAJOR reset (weights & contexts)
[DEBUG] handlePhaseChange -> MAJOR reset (weights & contexts)
[DEBUG] handlePhaseChange -> MAJOR reset (weights & contexts)
[DEBUG] handlePhaseChange -> MAJOR reset (weights & contexts)
[DEBUG] handlePhaseChange -> MAJOR reset (weights & contexts)
[DEBUG] handlePhaseChange -> MAJOR reset (weights & contexts)
[DEBUG] handlePhaseChange -> MAJOR reset (weights & contexts)
[DEBUG] handlePhaseChange -> MAJOR reset (weights & contexts)
[DEBUG] handlePhaseChange -> MAJOR reset (weights & contexts)
[DEBUG] handlePhaseChange -> MAJOR reset (weights & contexts)
[DEBUG] handlePhaseChange -> MAJOR reset (weights & contexts)
[DEBUG] handlePhaseChange -> MAJOR reset (weights & contexts)
[DEBUG] handlePhaseChange -> MAJOR reset (weights & contexts)
[DEBUG] handlePhaseChange -> MAJOR reset (weights & contexts)
[DEBUG] handlePhaseChange -> MAJOR reset (weights & contexts)
[DEBUG] handlePhaseChange -> MAJOR reset (weights & contexts)
[DEBUG] handlePhaseChange -> MAJOR reset (weights & contexts)
[DEBUG] handlePhaseChange -> MAJOR reset (weights & contexts)
[DEBUG] handlePhaseChange -> MAJOR reset (weights & contexts)
[DEBUG] handlePhaseChange -> MAJOR reset (weights & contexts)
[DEBUG] handlePhaseChange -> MAJOR reset (weights & contexts)
[DEBUG] handlePhaseChange -> MAJOR reset (weights & contexts)
[DEBUG] handlePhaseChange -> MAJOR reset (weights & contexts)
[DEBUG] handlePhaseChange -> MAJOR reset (weights & contexts)
[DEBUG] handlePhaseChange -> MAJOR reset (weights & contexts)
[DEBUG] handlePhaseChange -> MAJOR reset (weights & contexts)
[DEBUG] handlePhaseChange -> MAJOR reset (weights & contexts)
[DEBUG] handlePhaseChange -> MAJOR reset (weights & contexts)
[DEBUG] handlePhaseChange -> MAJOR reset (weights & contexts)
[DEBUG] handlePhaseChange -> MAJOR reset (weights & contexts)
[DEBUG] handlePhaseChange -> MAJOR reset (weights & contexts)
[DEBUG] handlePhaseChange -> MAJOR reset (weights & contexts)
[DEBUG] handlePhaseChange -> MAJOR reset (weights & contexts)
[DEBUG] handlePhaseChange -> MAJOR reset (weights & contexts)
[DEBUG] handlePhaseChange -> MAJOR reset (weights & contexts)
[DEBUG] handlePhaseChange -> MAJOR reset (weights & contexts)
[DEBUG] handlePhaseChange -> MAJOR reset (weights & contexts)
[DEBUG] handlePhaseChange -> MAJOR reset (weights & contexts)
[DEBUG] handlePhaseChange -> MAJOR reset (weights & contexts)
[DEBUG] handlePhaseChange -> MAJOR reset (weights & contexts)
[DEBUG] handlePhaseChange -> MAJOR reset (weights & contexts)
[DEBUG] handlePhaseChange -> MAJOR reset (weights & contexts)
[DEBUG] handlePhaseChange -> MAJOR reset (weights & contexts)
[DEBUG] handlePhaseChange -> MAJOR reset (weights & contexts)
[DEBUG] handlePhaseChange -> MAJOR reset (weights & contexts)
[DEBUG] handlePhaseChange -> MAJOR reset (weights & contexts)
[DEBUG] handlePhaseChange -> MAJOR reset (weights & contexts)
[DEBUG] handlePhaseChange -> MAJOR reset (weights & contexts)
[DEBUG] handlePhaseChange -> MAJOR reset (weights & contexts)
[DEBUG] handlePhaseChange -> MAJOR reset (weights & contexts)
[DEBUG] handlePhaseChange -> MAJOR reset (weights & contexts)
[DEBUG] handlePhaseChange -> MAJOR reset (weights & contexts)
[DEBUG] handlePhaseChange -> MAJOR reset (weights & contexts)
[DEBUG] handlePhaseChange -> MAJOR reset (weights & contexts)
[DEBUG] handlePhaseChange -> MAJOR reset (weights & contexts)
[DEBUG] handlePhaseChange -> MAJOR reset (weights & contexts)
[DEBUG] handlePhaseChange -> MAJOR reset (weights & contexts)
[DEBUG] handlePhaseChange -> MAJOR reset (weights & contexts)
[DEBUG] handlePhaseChange -> MAJOR reset (weights & contexts)
[DEBUG] handlePhaseChange -> MAJOR reset (weights & contexts)
[DEBUG] handlePhaseChange -> MAJOR reset (weights & contexts)
[DEBUG] handlePhaseChange -> MAJOR reset (weights & contexts)
[DEBUG] handlePhaseChange -> MAJOR reset (weights & contexts)
[DEBUG] handlePhaseChange -> MAJOR reset (weights & contexts)
[DEBUG] handlePhaseChange -> MAJOR reset (weights & contexts)
[DEBUG] handlePhaseChange -> MAJOR reset (weights & contexts)
[DEBUG] handlePhaseChange -> MAJOR reset (weights & contexts)
[DEBUG] handlePhaseChange -> MAJOR reset (weights & contexts)
[DEBUG] handlePhaseChange -> MAJOR reset (weights & contexts)
[DEBUG] handlePhaseChange -> MAJOR reset (weights & contexts)
[DEBUG] handlePhaseChange -> MAJOR reset (weights & contexts)
[DEBUG] handlePhaseChange -> MAJOR reset (weights & contexts)
[DEBUG] handlePhaseChange -> MAJOR reset (weights & contexts)
[DEBUG] handlePhaseChange -> MAJOR reset (weights & contexts)
[DEBUG] handlePhaseChange -> MAJOR reset (weights & contexts)
[DEBUG] handlePhaseChange -> MAJOR reset (weights & contexts)
[DEBUG] handlePhaseChange -> MAJOR reset (weights & contexts)
[DEBUG] handlePhaseChange -> MAJOR reset (weights & contexts)
[DEBUG] handlePhaseChange -> MAJOR reset (weights & contexts)
[DEBUG] handlePhaseChange -> MAJOR reset (weights & contexts)
[DEBUG] handlePhaseChange -> MAJOR reset (weights & contexts)
[DEBUG] handlePhaseChange -> MAJOR reset (weights & contexts)
[DEBUG] handlePhaseChange -> MAJOR reset (weights & contexts)
[DEBUG] handlePhaseChange -> MAJOR reset (weights & contexts)
[DEBUG] handlePhaseChange -> MAJOR reset (weights & contexts)
[DEBUG] handlePhaseChange -> MAJOR reset (weights & contexts)
[DEBUG] handlePhaseChange -> MAJOR reset (weights & contexts)
[DEBUG] handlePhaseChange -> MAJOR reset (weights & contexts)
[DEBUG] handlePhaseChange -> MAJOR reset (weights & contexts)
[DEBUG] handlePhaseChange -> MAJOR reset (weights & contexts)
[DEBUG] handlePhaseChange -> MAJOR reset (weights & contexts)
[DEBUG] handlePhaseChange -> MAJOR reset (weights & contexts)
[DEBUG] handlePhaseChange -> MAJOR reset (weights & contexts)
[DEBUG] handlePhaseChange -> MAJOR reset (weights & contexts)
[DEBUG] handlePhaseChange -> MAJOR reset (weights & contexts)
[DEBUG] handlePhaseChange -> MAJOR reset (weights & contexts)
[DEBUG] handlePhaseChange -> MAJOR reset (weights & contexts)
[DEBUG] handlePhaseChange -> MAJOR reset (weights & contexts)
[DEBUG] handlePhaseChange -> MAJOR reset (weights & contexts)
[DEBUG] handlePhaseChange -> MAJOR reset (weights & contexts)
[DEBUG] handlePhaseChange -> MAJOR reset (weights & contexts)
[DEBUG] handlePhaseChange -> MAJOR reset (weights & contexts)
[DEBUG] handlePhaseChange -> MAJOR reset (weights & contexts)
[DEBUG] handlePhaseChange -> MAJOR reset (weights & contexts)
[DEBUG] handlePhaseChange -> MAJOR reset (weights & contexts)
[DEBUG] handlePhaseChange -> MAJOR reset (weights & contexts)
[DEBUG] handlePhaseChange -> MAJOR reset (weights & contexts)
[DEBUG] handlePhaseChange -> MAJOR reset (weights & contexts)
[DEBUG] handlePhaseChange -> MAJOR reset (weights & contexts)
[DEBUG] handlePhaseChange -> MAJOR reset (weights & contexts)
[DEBUG] handlePhaseChange -> MAJOR reset (weights & contexts)
[DEBUG] handlePhaseChange -> MAJOR reset (weights & contexts)
[DEBUG] handlePhaseChange -> MAJOR reset (weights & contexts)
[DEBUG] handlePhaseChange -> MAJOR reset (weights & contexts)
[DEBUG] handlePhaseChange -> MAJOR reset (weights & contexts)
[DEBUG] handlePhaseChange -> MAJOR reset (weights & contexts)
[DEBUG] handlePhaseChange -> MAJOR reset (weights & contexts)
[DEBUG] handlePhaseChange -> MAJOR reset (weights & contexts)
[DEBUG] handlePhaseChange -> MAJOR reset (weights & contexts)
[DEBUG] handlePhaseChange -> MAJOR reset (weights & contexts)
[DEBUG] handlePhaseChange -> MAJOR reset (weights & contexts)
[DEBUG] handlePhaseChange -> MAJOR reset (weights & contexts)
[DEBUG] handlePhaseChange -> MAJOR reset (weights & contexts)
[DEBUG] handlePhaseChange -> MAJOR reset (weights & contexts)
[DEBUG] handlePhaseChange -> MAJOR reset (weights & contexts)
[DEBUG] handlePhaseChange -> MAJOR reset (weights & contexts)
[DEBUG] handlePhaseChange -> MAJOR reset (weights & contexts)
[DEBUG] handlePhaseChange -> MAJOR reset (weights & contexts)
[DEBUG] handlePhaseChange -> MAJOR reset (weights & contexts)
[DEBUG] handlePhaseChange -> MAJOR reset (weights & contexts)
[DEBUG] handlePhaseChange -> MAJOR reset (weights & contexts)
[DEBUG] handlePhaseChange -> MAJOR reset (weights & contexts)
[DEBUG] handlePhaseChange -> MAJOR reset (weights & contexts)
[DEBUG] handlePhaseChange -> MAJOR reset (weights & contexts)
[DEBUG] handlePhaseChange -> MAJOR reset (weights & contexts)
[DEBUG] handlePhaseChange -> MAJOR reset (weights & contexts)
[DEBUG] handlePhaseChange -> MAJOR reset (weights & contexts)
[DEBUG] handlePhaseChange -> MAJOR reset (weights & contexts)
[DEBUG] handlePhaseChange -> MAJOR reset (weights & contexts)
[DEBUG] handlePhaseChange -> MAJOR reset (weights & contexts)
[DEBUG] handlePhaseChange -> MAJOR reset (weights & contexts)
[DEBUG] handlePhaseChange -> MAJOR reset (weights & contexts)
[DEBUG] handlePhaseChange -> MAJOR reset (weights & contexts)
[DEBUG] handlePhaseChange -> MAJOR reset (weights & contexts)
[DEBUG] handlePhaseChange -> MAJOR reset (weights & contexts)
[DEBUG] handlePhaseChange -> MAJOR reset (weights & contexts)
[DEBUG] handlePhaseChange -> MAJOR reset (weights & contexts)
[DEBUG] handlePhaseChange -> MAJOR reset (weights & contexts)
[DEBUG] handlePhaseChange -> MAJOR reset (weights & contexts)
[DEBUG] handlePhaseChange -> MAJOR reset (weights & contexts)
[DEBUG] handlePhaseChange -> MAJOR reset (weights & contexts)
[DEBUG] handlePhaseChange -> MAJOR reset (weights & contexts)
[DEBUG] handlePhaseChange -> MAJOR reset (weights & contexts)
[DEBUG] handlePhaseChange -> MAJOR reset (weights & contexts)
[DEBUG] handlePhaseChange -> MAJOR reset (weights & contexts)
[DEBUG] handlePhaseChange -> MAJOR reset (weights & contexts)
[DEBUG] handlePhaseChange -> MAJOR reset (weights & contexts)
[DEBUG] handlePhaseChange -> MAJOR reset (weights & contexts)
[DEBUG] handlePhaseChange -> MAJOR reset (weights & contexts)
[DEBUG] handlePhaseChange -> MAJOR reset (weights & contexts)
[DEBUG] handlePhaseChange -> MAJOR reset (weights & contexts)
[DEBUG] handlePhaseChange -> MAJOR reset (weights & contexts)
[DEBUG] handlePhaseChange -> MAJOR reset (weights & contexts)
[DEBUG] handlePhaseChange -> MAJOR reset (weights & contexts)
[DEBUG] handlePhaseChange -> MAJOR reset (weights & contexts)
[DEBUG] handlePhaseChange -> MAJOR reset (weights & contexts)
[DEBUG] handlePhaseChange -> MAJOR reset (weights & contexts)
[DEBUG] handlePhaseChange -> MAJOR reset (weights & contexts)
[DEBUG] handlePhaseChange -> MAJOR reset (weights & contexts)
[DEBUG] handlePhaseChange -> MAJOR reset (weights & contexts)
[DEBUG] handlePhaseChange -> MAJOR reset (weights & contexts)
[DEBUG] handlePhaseChange -> MAJOR reset (weights & contexts)
[DEBUG] handlePhaseChange -> MAJOR reset (weights & contexts)
[DEBUG] handlePhaseChange -> MAJOR reset (weights & contexts)
[DEBUG] handlePhaseChange -> MAJOR reset (weights & contexts)
[DEBUG] handlePhaseChange -> MAJOR reset (weights & contexts)
[DEBUG] handlePhaseChange -> MAJOR reset (weights & contexts)
[DEBUG] handlePhaseChange -> MAJOR reset (weights & contexts)
[DEBUG] handlePhaseChange -> MAJOR reset (weights & contexts)
[DEBUG] handlePhaseChange -> MAJOR reset (weights & contexts)
[DEBUG] handlePhaseChange -> MAJOR reset (weights & contexts)
[DEBUG] handlePhaseChange -> MAJOR reset (weights & contexts)
[DEBUG] handlePhaseChange -> MAJOR reset (weights & contexts)
[DEBUG] handlePhaseChange -> MAJOR reset (weights & contexts)
[DEBUG] handlePhaseChange -> MAJOR reset (weights & contexts)
[DEBUG] handlePhaseChange -> MAJOR reset (weights & contexts)
[DEBUG] handlePhaseChange -> MAJOR reset (weights & contexts)
[DEBUG] handlePhaseChange -> MAJOR reset (weights & contexts)
[DEBUG] handlePhaseChange -> MAJOR reset (weights & contexts)
[DEBUG] handlePhaseChange -> MAJOR reset (weights & contexts)
[DEBUG] handlePhaseChange -> MAJOR reset (weights & contexts)
[DEBUG] handlePhaseChange -> MAJOR reset (weights & contexts)
[DEBUG] handlePhaseChange -> MAJOR reset (weights & contexts)
[DEBUG] handlePhaseChange -> MAJOR reset (weights & contexts)
[DEBUG] handlePhaseChange -> MAJOR reset (weights & contexts)
[DEBUG] handlePhaseChange -> MAJOR reset (weights & contexts)
[DEBUG] handlePhaseChange -> MAJOR reset (weights & contexts)
[DEBUG] handlePhaseChange -> MAJOR reset (weights & contexts)
[DEBUG] handlePhaseChange -> MAJOR reset (weights & contexts)
[DEBUG] handlePhaseChange -> MAJOR reset (weights & contexts)
[DEBUG] handlePhaseChange -> MAJOR reset (weights & contexts)
[DEBUG] handlePhaseChange -> MAJOR reset (weights & contexts)
[DEBUG] handlePhaseChange -> MAJOR reset (weights & contexts)
[DEBUG] handlePhaseChange -> MAJOR reset (weights & contexts)
[DEBUG] handlePhaseChange -> MAJOR reset (weights & contexts)
[DEBUG] handlePhaseChange -> MAJOR reset (weights & contexts)
[DEBUG] handlePhaseChange -> MAJOR reset (weights & contexts)
[DEBUG] handlePhaseChange -> MAJOR reset (weights & contexts)
[DEBUG] handlePhaseChange -> MAJOR reset (weights & contexts)
[DEBUG] handlePhaseChange -> MAJOR reset (weights & contexts)
[DEBUG] handlePhaseChange -> MAJOR reset (weights & contexts)
[DEBUG] handlePhaseChange -> MAJOR reset (weights & contexts)
[DEBUG] handlePhaseChange -> MAJOR reset (weights & contexts)
[DEBUG] handlePhaseChange -> MAJOR reset (weights & contexts)
[DEBUG] handlePhaseChange -> MAJOR reset (weights & contexts)
[DEBUG] handlePhaseChange -> MAJOR reset (weights & contexts)
[DEBUG] handlePhaseChange -> MAJOR reset (weights & contexts)
[DEBUG] handlePhaseChange -> MAJOR reset (weights & contexts)
[DEBUG] handlePhaseChange -> MAJOR reset (weights & contexts)
[DEBUG] handlePhaseChange -> MAJOR reset (weights & contexts)
[DEBUG] handlePhaseChange -> MAJOR reset (weights & contexts)
[DEBUG] handlePhaseChange -> MAJOR reset (weights & contexts)
[DEBUG] handlePhaseChange -> MAJOR reset (weights & contexts)
[DEBUG] handlePhaseChange -> MAJOR reset (weights & contexts)
[DEBUG] handlePhaseChange -> MAJOR reset (weights & contexts)
[DEBUG] handlePhaseChange -> MAJOR reset (weights & contexts)
[DEBUG] handlePhaseChange -> MAJOR reset (weights & contexts)
[DEBUG] handlePhaseChange -> MAJOR reset (weights & contexts)
[DEBUG] handlePhaseChange -> MAJOR reset (weights & contexts)
[DEBUG] handlePhaseChange -> MAJOR reset (weights & contexts)
[DEBUG] handlePhaseChange -> MAJOR reset (weights & contexts)
[DEBUG] handlePhaseChange -> MAJOR reset (weights & contexts)
[DEBUG] handlePhaseChange -> MAJOR reset (weights & contexts)
[DEBUG] handlePhaseChange -> MAJOR reset (weights & contexts)
[DEBUG] handlePhaseChange -> MAJOR reset (weights & contexts)
[DEBUG] handlePhaseChange -> MAJOR reset (weights & contexts)
[DEBUG] handlePhaseChange -> MAJOR reset (weights & contexts)
[DEBUG] handlePhaseChange -> MAJOR reset (weights & contexts)
[DEBUG] handlePhaseChange -> MAJOR reset (weights & contexts)
[DEBUG] handlePhaseChange -> MAJOR reset (weights & contexts)
[DEBUG] handlePhaseChange -> MAJOR reset (weights & contexts)
[DEBUG] handlePhaseChange -> MAJOR reset (weights & contexts)
[DEBUG] handlePhaseChange -> MAJOR reset (weights & contexts)
[DEBUG] handlePhaseChange -> MAJOR reset (weights & contexts)
[DEBUG] handlePhaseChange -> MAJOR reset (weights & contexts)
[DEBUG] handlePhaseChange -> MAJOR reset (weights & contexts)
[DEBUG] handlePhaseChange -> MAJOR reset (weights & contexts)
[DEBUG] handlePhaseChange -> MAJOR reset (weights & contexts)
[DEBUG] handlePhaseChange -> MAJOR reset (weights & contexts)
[DEBUG] handlePhaseChange -> MAJOR reset (weights & contexts)
[DEBUG] handlePhaseChange -> MAJOR reset (weights & contexts)
[DEBUG] handlePhaseChange -> MAJOR reset (weights & contexts)
[DEBUG] handlePhaseChange -> MAJOR reset (weights & contexts)
[DEBUG] handlePhaseChange -> MAJOR reset (weights & contexts)
[DEBUG] handlePhaseChange -> MAJOR reset (weights & contexts)
[DEBUG] handlePhaseChange -> MAJOR reset (weights & contexts)
[DEBUG] handlePhaseChange -> MAJOR reset (weights & contexts)
[DEBUG] handlePhaseChange -> MAJOR reset (weights & contexts)
[DEBUG] handlePhaseChange -> MAJOR reset (weights & contexts)
[DEBUG] handlePhaseChange -> MAJOR reset (weights & contexts)
[DEBUG] handlePhaseChange -> MAJOR reset (weights & contexts)
[DEBUG] handlePhaseChange -> MAJOR reset (weights & contexts)
[DEBUG] handlePhaseChange -> MAJOR reset (weights & contexts)
[DEBUG] handlePhaseChange -> MAJOR reset (weights & contexts)
[DEBUG] handlePhaseChange -> MAJOR reset (weights & contexts)
[DEBUG] handlePhaseChange -> MAJOR reset (weights & contexts)
[DEBUG] handlePhaseChange -> MAJOR reset (weights & contexts)
[DEBUG] handlePhaseChange -> MAJOR reset (weights & contexts)
[DEBUG] handlePhaseChange -> MAJOR reset (weights & contexts)
[DEBUG] handlePhaseChange -> MAJOR reset (weights & contexts)
[DEBUG] handlePhaseChange -> MAJOR reset (weights & contexts)
[DEBUG] handlePhaseChange -> MAJOR reset (weights & contexts)
[DEBUG] handlePhaseChange -> MAJOR reset (weights & contexts)
[DEBUG] handlePhaseChange -> MAJOR reset (weights & contexts)
[DEBUG] handlePhaseChange -> MAJOR reset (weights & contexts)
[DEBUG] handlePhaseChange -> MAJOR reset (weights & contexts)
[DEBUG] handlePhaseChange -> MAJOR reset (weights & contexts)
[DEBUG] handlePhaseChange -> MAJOR reset (weights & contexts)
[DEBUG] handlePhaseChange -> MAJOR reset (weights & contexts)
[DEBUG] handlePhaseChange -> MAJOR reset (weights & contexts)
[DEBUG] handlePhaseChange -> MAJOR reset (weights & contexts)
[DEBUG] handlePhaseChange -> MAJOR reset (weights & contexts)
[DEBUG] handlePhaseChange -> MAJOR reset (weights & contexts)
[DEBUG] handlePhaseChange -> MAJOR reset (weights & contexts)
[DEBUG] handlePhaseChange -> MAJOR reset (weights & contexts)
[DEBUG] handlePhaseChange -> MAJOR reset (weights & contexts)
[DEBUG] handlePhaseChange -> MAJOR reset (weights & contexts)
[DEBUG] handlePhaseChange -> MAJOR reset (weights & contexts)
[DEBUG] handlePhaseChange -> MAJOR reset (weights & contexts)
[DEBUG] handlePhaseChange -> MAJOR reset (weights & contexts)
[DEBUG] handlePhaseChange -> MAJOR reset (weights & contexts)
[DEBUG] handlePhaseChange -> MAJOR reset (weights & contexts)
[DEBUG] handlePhaseChange -> MAJOR reset (weights & contexts)
[DEBUG] handlePhaseChange -> MAJOR reset (weights & contexts)
[DEBUG] handlePhaseChange -> MAJOR reset (weights & contexts)
[DEBUG] handlePhaseChange -> MAJOR reset (weights & contexts)
[DEBUG] handlePhaseChange -> MAJOR reset (weights & contexts)
[DEBUG] handlePhaseChange -> MAJOR reset (weights & contexts)
[DEBUG] handlePhaseChange -> MAJOR reset (weights & contexts)
[DEBUG] handlePhaseChange -> MAJOR reset (weights & contexts)
[DEBUG] handlePhaseChange -> MAJOR reset (weights & contexts)
[DEBUG] handlePhaseChange -> MAJOR reset (weights & contexts)
[DEBUG] handlePhaseChange -> MAJOR reset (weights & contexts)
[DEBUG] handlePhaseChange -> MAJOR reset (weights & contexts)
[DEBUG] handlePhaseChange -> MAJOR reset (weights & contexts)
[DEBUG] handlePhaseChange -> MAJOR reset (weights & contexts)
[DEBUG] handlePhaseChange -> MAJOR reset (weights & contexts)
[DEBUG] handlePhaseChange -> MAJOR reset (weights & contexts)
[DEBUG] handlePhaseChange -> MAJOR reset (weights & contexts)
[DEBUG] handlePhaseChange -> MAJOR reset (weights & contexts)
[DEBUG] handlePhaseChange -> MAJOR reset (weights & contexts)
[DEBUG] handlePhaseChange -> MAJOR reset (weights & contexts)
[DEBUG] handlePhaseChange -> MAJOR reset (weights & contexts)
[DEBUG] handlePhaseChange -> MAJOR reset (weights & contexts)
[DEBUG] handlePhaseChange -> MAJOR reset (weights & contexts)
[DEBUG] handlePhaseChange -> MAJOR reset (weights & contexts)
[DEBUG] handlePhaseChange -> MAJOR reset (weights & contexts)
[DEBUG] handlePhaseChange -> MAJOR reset (weights & contexts)
[DEBUG] handlePhaseChange -> MAJOR reset (weights & contexts)
[DEBUG] handlePhaseChange -> MAJOR reset (weights & contexts)
[DEBUG] handlePhaseChange -> MAJOR reset (weights & contexts)
[DEBUG] handlePhaseChange -> MAJOR reset (weights & contexts)
[DEBUG] handlePhaseChange -> MAJOR reset (weights & contexts)
[DEBUG] handlePhaseChange -> MAJOR reset (weights & contexts)
[DEBUG] handlePhaseChange -> MAJOR reset (weights & contexts)
[DEBUG] handlePhaseChange -> MAJOR reset (weights & contexts)
[DEBUG] handlePhaseChange -> MAJOR reset (weights & contexts)
[DEBUG] handlePhaseChange -> MAJOR reset (weights & contexts)
[DEBUG] handlePhaseChange -> MAJOR reset (weights & contexts)
[DEBUG] handlePhaseChange -> MAJOR reset (weights & contexts)
[DEBUG] handlePhaseChange -> MAJOR reset (weights & contexts)
[DEBUG] handlePhaseChange -> MAJOR reset (weights & contexts)
[DEBUG] handlePhaseChange -> MAJOR reset (weights & contexts)
[DEBUG] handlePhaseChange -> MAJOR reset (weights & contexts)
[DEBUG] handlePhaseChange -> MAJOR reset (weights & contexts)
[DEBUG] handlePhaseChange -> MAJOR reset (weights & contexts)
[DEBUG] handlePhaseChange -> MAJOR reset (weights & contexts)
[DEBUG] handlePhaseChange -> MAJOR reset (weights & contexts)
[DEBUG] handlePhaseChange -> MAJOR reset (weights & contexts)
[DEBUG] handlePhaseChange -> MAJOR reset (weights & contexts)
[DEBUG] handlePhaseChange -> MAJOR reset (weights & contexts)
[DEBUG] handlePhaseChange -> MAJOR reset (weights & contexts)
[DEBUG] handlePhaseChange -> MAJOR reset (weights & contexts)
[DEBUG] handlePhaseChange -> MAJOR reset (weights & contexts)
[DEBUG] handlePhaseChange -> MAJOR reset (weights & contexts)
[DEBUG] handlePhaseChange -> MAJOR reset (weights & contexts)
[DEBUG] handlePhaseChange -> MAJOR reset (weights & contexts)
[DEBUG] handlePhaseChange -> MAJOR reset (weights & contexts)
[DEBUG] handlePhaseChange -> MAJOR reset (weights & contexts)
[DEBUG] handlePhaseChange -> MAJOR reset (weights & contexts)
[DEBUG] handlePhaseChange -> MAJOR reset (weights & contexts)
[DEBUG] handlePhaseChange -> MAJOR reset (weights & contexts)
[DEBUG] handlePhaseChange -> MAJOR reset (weights & contexts)
[DEBUG] handlePhaseChange -> MAJOR reset (weights & contexts)
[DEBUG] handlePhaseChange -> MAJOR reset (weights & contexts)
[DEBUG] handlePhaseChange -> MAJOR reset (weights & contexts)
[DEBUG] handlePhaseChange -> MAJOR reset (weights & contexts)
[DEBUG] handlePhaseChange -> MAJOR reset (weights & contexts)
[DEBUG] handlePhaseChange -> MAJOR reset (weights & contexts)
[DEBUG] handlePhaseChange -> MAJOR reset (weights & contexts)
[DEBUG] handlePhaseChange -> MAJOR reset (weights & contexts)
[DEBUG] handlePhaseChange -> MAJOR reset (weights & contexts)
[DEBUG] handlePhaseChange -> MAJOR reset (weights & contexts)
[DEBUG] handlePhaseChange -> MAJOR reset (weights & contexts)
[DEBUG] handlePhaseChange -> MAJOR reset (weights & contexts)
[DEBUG] handlePhaseChange -> MAJOR reset (weights & contexts)
[DEBUG] handlePhaseChange -> MAJOR reset (weights & contexts)
[DEBUG] handlePhaseChange -> MAJOR reset (weights & contexts)
[DEBUG] handlePhaseChange -> MAJOR reset (weights & contexts)
[DEBUG] handlePhaseChange -> MAJOR reset (weights & contexts)
[DEBUG] handlePhaseChange -> MAJOR reset (weights & contexts)
[DEBUG] handlePhaseChange -> MAJOR reset (weights & contexts)
[DEBUG] handlePhaseChange -> MAJOR reset (weights & contexts)
[DEBUG] handlePhaseChange -> MAJOR reset (weights & contexts)
[DEBUG] handlePhaseChange -> MAJOR reset (weights & contexts)
[DEBUG] handlePhaseChange -> MAJOR reset (weights & contexts)
[DEBUG] handlePhaseChange -> MAJOR reset (weights & contexts)
[DEBUG] handlePhaseChange -> MAJOR reset (weights & contexts)
[DEBUG] handlePhaseChange -> MAJOR reset (weights & contexts)
[DEBUG] handlePhaseChange -> MAJOR reset (weights & contexts)
[DEBUG] handlePhaseChange -> MAJOR reset (weights & contexts)
[DEBUG] handlePhaseChange -> MAJOR reset (weights & contexts)
[DEBUG] handlePhaseChange -> MAJOR reset (weights & contexts)
[DEBUG] handlePhaseChange -> MAJOR reset (weights & contexts)
[DEBUG] handlePhaseChange -> MAJOR reset (weights & contexts)
[DEBUG] handlePhaseChange -> MAJOR reset (weights & contexts)
[DEBUG] handlePhaseChange -> MAJOR reset (weights & contexts)
[DEBUG] handlePhaseChange -> MAJOR reset (weights & contexts)
[DEBUG] handlePhaseChange -> MAJOR reset (weights & contexts)
[DEBUG] handlePhaseChange -> MAJOR reset (weights & contexts)
[DEBUG] handlePhaseChange -> MAJOR reset (weights & contexts)
[DEBUG] handlePhaseChange -> MAJOR reset (weights & contexts)
[DEBUG] handlePhaseChange -> MAJOR reset (weights & contexts)
[DEBUG] handlePhaseChange -> MAJOR reset (weights & contexts)
[DEBUG] handlePhaseChange -> MAJOR reset (weights & contexts)
[DEBUG] handlePhaseChange -> MAJOR reset (weights & contexts)
[DEBUG] handlePhaseChange -> MAJOR reset (weights & contexts)
[DEBUG] handlePhaseChange -> MAJOR reset (weights & contexts)
[DEBUG] handlePhaseChange -> MAJOR reset (weights & contexts)
[DEBUG] handlePhaseChange -> MAJOR reset (weights & contexts)
[DEBUG] handlePhaseChange -> MAJOR reset (weights & contexts)
[DEBUG] handlePhaseChange -> MAJOR reset (weights & contexts)
[DEBUG] handlePhaseChange -> MAJOR reset (weights & contexts)
[DEBUG] handlePhaseChange -> MAJOR reset (weights & contexts)
[DEBUG] handlePhaseChange -> MAJOR reset (weights & contexts)
[DEBUG] handlePhaseChange -> MAJOR reset (weights & contexts)
[DEBUG] handlePhaseChange -> MAJOR reset (weights & contexts)
[DEBUG] handlePhaseChange -> MAJOR reset (weights & contexts)
[DEBUG] handlePhaseChange -> MAJOR reset (weights & contexts)
[DEBUG] handlePhaseChange -> MAJOR reset (weights & contexts)
[DEBUG] handlePhaseChange -> MAJOR reset (weights & contexts)
[DEBUG] handlePhaseChange -> MAJOR reset (weights & contexts)
[DEBUG] handlePhaseChange -> MAJOR reset (weights & contexts)
[DEBUG] handlePhaseChange -> MAJOR reset (weights & contexts)
[...]
scooby_state_10008a168|44|11 1,0,0,0,0,0,0,0,0,0,0,0,1,0,0,2,
scooby_state_ffffffff7e03b6cc|62|3 2,0,0,0,0,0,0,0,0,0,0,0,0,0,0,2,
scooby_state_104afe4|37|1 0,0,0,0,0,0,0,0,0,0,0,0,0,1,1,2,
scooby_state_ffffffff7e03b6cc|58|32 2,0,0,0,0,0,0,0,0,0,0,0,0,0,0,2,
scooby_state_104afe4|36|1 0,0,0,0,0,0,0,0,0,0,0,0,0,1,1,2,
scooby_state_104afe4|15|1 0,0,0,0,0,0,0,0,0,0,0,0,1,1,0,2,
scooby_state_10014b20c|43|0 0,0,0,0,0,0,0,0,0,0,1,0,1,0,0,2,
scooby_state_10008a168|3|-56 2,0,0,0,0,0,0,0,0,0,0,0,0,0,0,2,
scooby_state_104afe4|16|1 0,0,0,0,0,0,0,0,0,0,0,0,1,1,0,2,
scooby_state_104afe4|14|1 0,0,0,0,0,0,0,0,0,0,0,0,1,1,0,2,
scooby_state_ffffffff7ee00a84|27|2 0,0,0,0,0,1,0,0,0,0,0,1,0,0,0,2,
scooby_state_104afe4|18|1 0,0,0,0,0,0,0,0,0,0,0,0,1,1,0,2,
scooby_state_104afe4|19|1 0,0,0,0,0,0,0,0,0,0,0,0,1,1,0,2,
scooby_state_104afe4|21|1 0,0,0,0,0,0,0,0,0,0,0,0,1,1,0,2,
scooby_state_104afe4|28|1 0,0,0,0,0,0,0,0,0,0,0,0,0,1,1,2,
scooby_state_104afe4|29|1 0,0,0,0,0,0,0,0,0,0,0,0,0,1,1,2,
scooby_state_100140a58|38|-20 1,0,0,0,1,0,0,0,0,0,0,0,0,0,0,2,
scooby_state_100134ea8|28|16 2,0,0,0,0,0,0,0,0,0,0,0,0,0,0,2,
scooby_state_1000d28|59|25 2,0,0,0,0,0,0,0,0,0,0,0,0,0,0,2,
scooby_state_100140a58|45|-2 0,0,0,0,0,0,0,0,0,0,0,2,0,0,0,2,
scooby_state_10008a168|52|15 1,0,0,0,0,0,0,1,0,0,0,0,0,0,0,2,
scooby_state_107a4b4|26|26 0,1,0,0,0,0,0,0,0,1,0,0,0,0,0,2,
scooby_state_10008a168|29|8 2,0,0,0,0,0,0,0,0,0,0,0,0,0,0,2,
scooby_state_ffffffff7ee008e0|47|-10 2,0,0,0,0,0,0,0,0,0,0,0,0,0,0,2,
scooby_state_1080398|62|0 1,0,0,0,0,0,0,0,0,0,0,0,0,0,0,1,
scooby_state_1008e88|49|-2 1,0,0,0,0,0,0,0,0,0,0,0,0,0,0,1,
scooby_state_10014a1fc|53|-10 1,0,0,0,0,0,0,0,0,0,0,0,0,0,0,1,
scooby_state_10014b21c|23|0 1,0,0,0,0,0,0,0,0,0,0,0,0,0,0,1,
scooby_state_10014a1fc|3|2 1,0,0,0,0,0,0,0,0,0,0,0,0,0,0,1,
scooby_state_ffffffff7ee00a6c|51|-4 1,0,0,0,0,0,0,0,0,0,0,0,0,0,0,1,
scooby_state_ffffffff7ee00d80|54|1 1,0,0,0,0,0,0,0,0,0,0,0,0,0,0,1,
scooby_state_ffffffff7ee00a58|31|-21 0,0,0,0,0,0,0,0,1,0,0,0,0,0,0,1,
scooby_state_10014a1fc|63|11 1,0,0,0,0,0,0,0,0,0,0,0,0,0,0,1,
scooby_state_ffffffff7ee00a84|49|15 1,0,0,0,0,0,0,0,0,0,0,0,0,0,0,1,
scooby_state_10014a214|27|1 1,0,0,0,0,0,0,0,0,0,0,0,0,0,0,1,
scooby_state_100140a58|61|24 1,0,0,0,0,0,0,0,0,0,0,0,0,0,0,1,
scooby_state_100190c|29|5 0,0,0,0,0,1,0,0,0,0,0,0,0,0,0,1,
scooby_state_100140a64|12|6 0,0,0,0,0,0,0,0,0,1,0,0,0,0,0,1,
scooby_state_1008e80|23|-3 0,0,0,0,0,0,0,0,0,0,0,0,0,1,0,1,
scooby_state_100140a58|45|11 0,0,0,0,0,0,0,0,1,0,0,0,0,0,0,1,
scooby_state_1008ee8|3|0 1,0,0,0,0,0,0,0,0,0,0,0,0,0,0,1,
scooby_state_10014a2dc|11|-15 1,0,0,0,0,0,0,0,0,0,0,0,0,0,0,1,
scooby_state_1008ec0|5|-1 0,0,0,1,0,0,0,0,0,0,0,0,0,0,0,1,
scooby_state_100136d10|1|-41 0,0,0,0,1,0,0,0,0,0,0,0,0,0,0,1,
scooby_state_1001a38|38|1 0,1,0,0,0,0,0,0,0,0,0,0,0,0,0,1,
scooby_state_ffffffff7ee00a84|27|15 0,0,0,0,0,0,0,0,0,0,0,1,0,0,0,1,
scooby_state_100140a58|44|24 0,0,0,0,0,0,0,0,0,0,1,0,0,0,0,1,
scooby_state_10014ad80|38|0 0,0,0,0,1,0,0,0,0,0,0,0,0,0,0,1,
scooby_state_10014a214|8|1 1,0,0,0,0,0,0,0,0,0,0,0,0,0,0,1,
scooby_state_10014a250|46|-1 1,0,0,0,0,0,0,0,0,0,0,0,0,0,0,1,
scooby_state_1001938|19|5 1,0,0,0,0,0,0,0,0,0,0,0,0,0,0,1,
scooby_state_1008ec0|0|-3 0,0,0,0,0,0,0,0,1,0,0,0,0,0,0,1,
scooby_state_10014b4e8|31|-14 1,0,0,0,0,0,0,0,0,0,0,0,0,0,0,1,
scooby_state_100140a58|1|-4 1,0,0,0,0,0,0,0,0,0,0,0,0,0,0,1,
scooby_state_100190c|20|0 0,0,0,1,0,0,0,0,0,0,0,0,0,0,0,1,
scooby_state_1000d28|34|5 0,1,0,0,0,0,0,0,0,0,0,0,0,0,0,1,
scooby_state_104af80|62|1 1,0,0,0,0,0,0,0,0,0,0,0,0,0,0,1,
scooby_state_ffffffff7ee00a84|37|0 1,0,0,0,0,0,0,0,0,0,0,0,0,0,0,1,
scooby_state_1000d28|57|40 1,0,0,0,0,0,0,0,0,0,0,0,0,0,0,1,
scooby_state_10094cc|20|-3 1,0,0,0,0,0,0,0,0,0,0,0,0,0,0,1,
scooby_state_1000d28|37|8 1,0,0,0,0,0,0,0,0,0,0,0,0,0,0,1,
scooby_state_1008ec0|59|-1 1,0,0,0,0,0,0,0,0,0,0,0,0,0,0,1,
scooby_state_10014ad2c|19|6 0,0,0,0,0,0,0,1,0,0,0,0,0,0,0,1,
scooby_state_100136d10|22|-1 1,0,0,0,0,0,0,0,0,0,0,0,0,0,0,1,
scooby_state_10014ad80|3|-48 1,0,0,0,0,0,0,0,0,0,0,0,0,0,0,1,
scooby_state_100134eac|29|6 0,0,0,0,0,0,1,0,0,0,0,0,0,0,0,1,
scooby_state_10014ad80|34|0 1,0,0,0,0,0,0,0,0,0,0,0,0,0,0,1,
scooby_state_ffffffff7ee00a58|27|-5 0,0,0,0,0,0,0,0,0,0,0,0,1,0,0,1,
scooby_state_100134eac|29|-1 0,0,0,0,1,0,0,0,0,0,0,0,0,0,0,1,
scooby_state_ffffffff7ee00dd0|34|0 0,0,0,0,0,0,0,0,0,0,0,1,0,0,0,1,
scooby_state_1001900|36|0 1,0,0,0,0,0,0,0,0,0,0,0,0,0,0,1,
scooby_state_ffffffff7ee00a84|53|15 0,0,0,0,0,0,0,0,0,0,0,1,0,0,0,1,
scooby_state_100140a58|23|10 0,0,0,1,0,0,0,0,0,0,0,0,0,0,0,1,
scooby_state_ffffffff7ee00a58|36|-25 0,0,0,0,0,0,0,0,0,0,0,1,0,0,0,1,
scooby_state_10014b120|57|0 1,0,0,0,0,0,0,0,0,0,0,0,0,0,0,1,
scooby_state_ffffffff7ee00a84|34|-23 1,0,0,0,0,0,0,0,0,0,0,0,0,0,0,1,
scooby_state_10014b780|30|17 1,0,0,0,0,0,0,0,0,0,0,0,0,0,0,1,
scooby_state_10014b74c|29|7 1,0,0,0,0,0,0,0,0,0,0,0,0,0,0,1,
scooby_state_ffffffff7ee00dcc|34|-1 0,0,0,0,0,1,0,0,0,0,0,0,0,0,0,1,
scooby_state_1008ee8|32|0 1,0,0,0,0,0,0,0,0,0,0,0,0,0,0,1,
scooby_state_10298a4|19|0 0,0,1,0,0,0,0,0,0,0,0,0,0,0,0,1,
scooby_state_10075c0|23|1 1,0,0,0,0,0,0,0,0,0,0,0,0,0,0,1,
scooby_state_10014a1fc|26|-19 1,0,0,0,0,0,0,0,0,0,0,0,0,0,0,1,
scooby_state_10014b20c|31|-6 0,0,0,1,0,0,0,0,0,0,0,0,0,0,0,1,
scooby_state_10014a694|26|16 1,0,0,0,0,0,0,0,0,0,0,0,0,0,0,1,
scooby_state_10dd584|22|-40 1,0,0,0,0,0,0,0,0,0,0,0,0,0,0,1,
scooby_state_ffffffff7ee00730|28|0 1,0,0,0,0,0,0,0,0,0,0,0,0,0,0,1,
scooby_state_1000d28|43|-16 0,0,0,0,0,0,0,0,0,0,1,0,0,0,0,1,
scooby_state_10014ad80|49|0 1,0,0,0,0,0,0,0,0,0,0,0,0,0,0,1,
scooby_state_ffffffff7ee00d0c|52|15 1,0,0,0,0,0,0,0,0,0,0,0,0,0,0,1,
scooby_state_1000d28|51|32 0,0,0,0,0,0,0,0,0,0,1,0,0,0,0,1,
scooby_state_1001100|4|-33 1,0,0,0,0,0,0,0,0,0,0,0,0,0,0,1,
scooby_state_ffffffff7ee00d8c|35|1 1,0,0,0,0,0,0,0,0,0,0,0,0,0,0,1,
scooby_state_10014b2c0|11|1 1,0,0,0,0,0,0,0,0,0,0,0,0,0,0,1,
scooby_state_ffffffff7e400e58|1|-3 0,0,0,0,0,0,0,0,1,0,0,0,0,0,0,1,
scooby_state_10008a168|63|6 0,0,0,0,0,0,0,0,1,0,0,0,0,0,0,1,
scooby_state_100140a58|53|5 0,1,0,0,0,0,0,0,0,0,0,0,0,0,0,1,
scooby_state_10014a1fc|19|-32 1,0,0,0,0,0,0,0,0,0,0,0,0,0,0,1,
scooby_state_100265820|32|1 1,0,0,0,0,0,0,0,0,0,0,0,0,0,0,1,
scooby_state_1008ec0|0|-2 1,0,0,0,0,0,0,0,0,0,0,0,0,0,0,1,
scooby_state_1000d28|59|8 1,0,0,0,0,0,0,0,0,0,0,0,0,0,0,1,
scooby_state_10014b120|40|-2 0,0,0,0,0,0,0,0,0,0,0,0,0,1,0,1,
scooby_state_1000d28|3|-31 1,0,0,0,0,0,0,0,0,0,0,0,0,0,0,1,
scooby_state_ffffffff7ee00d7c|21|-19 1,0,0,0,0,0,0,0,0,0,0,0,0,0,0,1,
scooby_state_ffffffff7e03b6cc|22|-18 1,0,0,0,0,0,0,0,0,0,0,0,0,0,0,1,
scooby_state_10008bf78|21|-1 0,0,0,0,0,0,0,0,0,0,0,1,0,0,0,1,
scooby_state_ffffffff7e0cf9d0|39|23 1,0,0,0,0,0,0,0,0,0,0,0,0,0,0,1,
scooby_state_10076a4|26|3 1,0,0,0,0,0,0,0,0,0,0,0,0,0,0,1,
scooby_state_10014b20c|35|-7 0,0,0,0,1,0,0,0,0,0,0,0,0,0,0,1,
scooby_state_1000d28|24|-19 0,0,0,0,0,0,0,0,0,1,0,0,0,0,0,1,
scooby_state_1002657e0|31|0 1,0,0,0,0,0,0,0,0,0,0,0,0,0,0,1,
scooby_state_10014b20c|15|11 0,0,0,0,0,0,0,0,0,0,0,0,0,1,0,1,
scooby_state_1000abaec|43|-1 1,0,0,0,0,0,0,0,0,0,0,0,0,0,0,1,
scooby_state_10014ad80|45|0 1,0,0,0,0,0,0,0,0,0,0,0,0,0,0,1,
scooby_state_10094cc|8|3 1,0,0,0,0,0,0,0,0,0,0,0,0,0,0,1,
scooby_state_1008ec0|54|-2 0,0,0,0,0,0,0,0,1,0,0,0,0,0,0,1,
scooby_state_104af7c|61|-2 1,0,0,0,0,0,0,0,0,0,0,0,0,0,0,1,
scooby_state_114b20c|8|1 0,0,0,0,0,0,0,0,0,0,0,1,0,0,0,1,
scooby_state_1008ec0|24|0 0,1,0,0,0,0,0,0,0,0,0,0,0,0,0,1,
scooby_state_10074c0|19|1 1,0,0,0,0,0,0,0,0,0,0,0,0,0,0,1,
scooby_state_10014b2bc|10|-19 1,0,0,0,0,0,0,0,0,0,0,0,0,0,0,1,
scooby_state_ffffffff7ee009fc|39|-19 1,0,0,0,0,0,0,0,0,0,0,0,0,0,0,1,
scooby_state_1007580|22|1 0,0,0,0,0,1,0,0,0,0,0,0,0,0,0,1,
scooby_state_ffffffff7ee00a54|20|14 0,0,0,0,0,1,0,0,0,0,0,0,0,0,0,1,
scooby_state_ffffffff7ee00e98|58|3 1,0,0,0,0,0,0,0,0,0,0,0,0,0,0,1,
scooby_state_12987d8|31|-8 1,0,0,0,0,0,0,0,0,0,0,0,0,0,0,1,
scooby_state_1000cc0|51|32 1,0,0,0,0,0,0,0,0,0,0,0,0,0,0,1,
scooby_state_10014a66c|25|16 1,0,0,0,0,0,0,0,0,0,0,0,0,0,0,1,
scooby_state_100140a7c|33|0 0,0,0,0,0,0,0,0,1,0,0,0,0,0,0,1,
scooby_state_1008ec0|10|-2 0,0,0,0,0,0,0,0,0,0,0,0,1,0,0,1,
scooby_state_ffffffff7ee00a84|12|-8 0,0,0,0,0,0,0,0,0,0,0,1,0,0,0,1,
scooby_state_100140a58|38|8 1,0,0,0,0,0,0,0,0,0,0,0,0,0,0,1,
scooby_state_1008ec0|15|-2 1,0,0,0,0,0,0,0,0,0,0,0,0,0,0,1,
scooby_state_ffffffff7e8e7b40|45|5 1,0,0,0,0,0,0,0,0,0,0,0,0,0,0,1,
scooby_state_1000abb18|44|7 1,0,0,0,0,0,0,0,0,0,0,0,0,0,0,1,
scooby_state_100140a7c|0|0 0,0,1,0,0,0,0,0,0,0,0,0,0,0,0,1,
scooby_state_1002658e0|35|3 1,0,0,0,0,0,0,0,0,0,0,0,0,0,0,1,
scooby_state_ffffffff7e400e58|2|1 0,0,0,0,0,0,0,0,0,0,0,1,0,0,0,1,
scooby_state_ffffffff7ee00a54|57|12 1,0,0,0,0,0,0,0,0,0,0,0,0,0,0,1,
scooby_state_100140a58|0|-10 1,0,0,0,0,0,0,0,0,0,0,0,0,0,0,1,
scooby_state_ffffffff7ee00a54|27|12 1,0,0,0,0,0,0,0,0,0,0,0,0,0,0,1,
scooby_state_ffffffff7ee00a84|52|23 0,0,0,0,0,0,0,0,0,1,0,0,0,0,0,1,
scooby_state_1000d28|17|-6 1,0,0,0,0,0,0,0,0,0,0,0,0,0,0,1,
scooby_state_104afe4|3|-3 0,0,0,0,0,0,0,0,0,1,0,0,0,0,0,1,
scooby_state_ffffffff7ee00798|1|-16 1,0,0,0,0,0,0,0,0,0,0,0,0,0,0,1,
scooby_state_1000d28|35|-13 0,0,0,0,0,0,0,0,0,0,0,0,0,1,0,1,
scooby_state_12989c0|39|1 0,0,0,0,0,0,0,0,0,0,0,1,0,0,0,1,
scooby_state_1000d28|52|26 1,0,0,0,0,0,0,0,0,0,0,0,0,0,0,1,
scooby_state_1007514|20|1 0,0,0,0,0,0,0,0,0,0,0,0,0,1,0,1,
scooby_state_100c680|26|4 1,0,0,0,0,0,0,0,0,0,0,0,0,0,0,1,
scooby_state_10008a17c|51|33 1,0,0,0,0,0,0,0,0,0,0,0,0,0,0,1,
scooby_state_114b240|9|6 0,0,0,0,1,0,0,0,0,0,0,0,0,0,0,1,
scooby_state_ffffffff7e03b6cc|27|-7 1,0,0,0,0,0,0,0,0,0,0,0,0,0,0,1,
scooby_state_104af20|60|-2 0,0,0,0,0,0,0,0,0,0,0,1,0,0,0,1,
scooby_state_ffffffff7ee00d58|17|0 0,0,0,0,0,0,0,0,1,0,0,0,0,0,0,1,
scooby_state_ffffffff7ee00a54|40|17 1,0,0,0,0,0,0,0,0,0,0,0,0,0,0,1,
scooby_state_1000d28|44|-11 0,0,0,0,0,0,0,0,0,0,0,0,0,1,0,1,
scooby_state_ffffffff7ee00a84|51|14 1,0,0,0,0,0,0,0,0,0,0,0,0,0,0,1,
scooby_state_1000d28|25|-11 0,0,0,0,0,0,0,0,0,0,0,0,0,1,0,1,
scooby_state_1008ec0|15|-1 0,0,0,1,0,0,0,0,0,0,0,0,0,0,0,1,
scooby_state_1008ee8|2|0 1,0,0,0,0,0,0,0,0,0,0,0,0,0,0,1,
scooby_state_ffffffff7e400e98|8|8 0,0,0,0,0,0,0,0,1,0,0,0,0,0,0,1,
scooby_state_1005a40|30|2 1,0,0,0,0,0,0,0,0,0,0,0,0,0,0,1,
scooby_state_10014a6c0|27|26 1,0,0,0,0,0,0,0,0,0,0,0,0,0,0,1,
scooby_state_1000d28|3|-57 1,0,0,0,0,0,0,0,0,0,0,0,0,0,0,1,
scooby_state_10008a17c|10|-39 0,0,0,0,0,0,0,0,0,0,1,0,0,0,0,1,
scooby_state_ffffffff7e7da37c|13|1 1,0,0,0,0,0,0,0,0,0,0,0,0,0,0,1,
scooby_state_1000d28|28|10 1,0,0,0,0,0,0,0,0,0,0,0,0,0,0,1,
scooby_state_1000d28|60|17 1,0,0,0,0,0,0,0,0,0,0,0,0,0,0,1,
scooby_state_10014a250|46|5 1,0,0,0,0,0,0,0,0,0,0,0,0,0,0,1,
scooby_state_100140a7c|45|0 0,0,0,0,0,1,0,0,0,0,0,0,0,0,0,1,
scooby_state_1000d28|14|-14 0,0,0,0,0,0,0,0,0,1,0,0,0,0,0,1,
scooby_state_1000d28|13|-17 1,0,0,0,0,0,0,0,0,0,0,0,0,0,0,1,
scooby_state_ffffffff7ee00a54|26|8 0,0,0,1,0,0,0,0,0,0,0,0,0,0,0,1,
scooby_state_10014ad2c|41|0 0,0,0,1,0,0,0,0,0,0,0,0,0,0,0,1,
scooby_state_1082c48|25|9 0,0,0,0,0,0,0,0,0,0,0,0,0,1,0,1,
scooby_state_1001944|58|1 1,0,0,0,0,0,0,0,0,0,0,0,0,0,0,1,
scooby_state_ffffffff7ee00a84|38|-8 0,0,0,0,0,0,0,0,0,0,0,1,0,0,0,1,
scooby_state_100140a58|53|-10 1,0,0,0,0,0,0,0,0,0,0,0,0,0,0,1,
scooby_state_10014b340|13|1 1,0,0,0,0,0,0,0,0,0,0,0,0,0,0,1,
scooby_state_10014b20c|4|-6 0,0,0,0,0,0,0,0,0,0,0,0,0,1,0,1,
scooby_state_10014a29c|24|0 1,0,0,0,0,0,0,0,0,0,0,0,0,0,0,1,
scooby_state_10008a168|47|12 1,0,0,0,0,0,0,0,0,0,0,0,0,0,0,1,
scooby_state_10014a400|16|-11 0,1,0,0,0,0,0,0,0,0,0,0,0,0,0,1,
scooby_state_10014a1fc|46|20 0,1,0,0,0,0,0,0,0,0,0,0,0,0,0,1,
scooby_state_ffffffff7ee00a54|46|15 0,0,0,0,0,0,0,0,0,0,0,0,0,1,0,1,
scooby_state_114b1ec|7|1 0,0,0,0,0,0,0,0,0,0,0,1,0,0,0,1,
scooby_state_1000d28|31|5 1,0,0,0,0,0,0,0,0,0,0,0,0,0,0,1,
scooby_state_ffffffff7ee00a54|32|13 0,0,0,0,0,1,0,0,0,0,0,0,0,0,0,1,
scooby_state_1000d28|22|-13 1,0,0,0,0,0,0,0,0,0,0,0,0,0,0,1,
scooby_state_ffffffff7ee00a84|4|-15 0,0,0,0,0,0,0,0,0,0,0,0,0,1,0,1,
scooby_state_ffffffff7ee00a54|61|8 1,0,0,0,0,0,0,0,0,0,0,0,0,0,0,1,
scooby_state_ffffffff7ee00a6c|29|3 0,0,0,1,0,0,0,0,0,0,0,0,0,0,0,1,
scooby_state_100140a58|14|-41 1,0,0,0,0,0,0,0,0,0,0,0,0,0,0,1,
scooby_state_10094cc|56|2 1,0,0,0,0,0,0,0,0,0,0,0,0,0,0,1,
scooby_state_ffffffff7ee00a84|22|7 0,0,1,0,0,0,0,0,0,0,0,0,0,0,0,1,
scooby_state_ffffffff7ee00a54|30|8 0,0,0,1,0,0,0,0,0,0,0,0,0,0,0,1,
scooby_state_112f79c|5|2 0,0,0,0,0,0,0,0,0,0,0,0,1,0,0,1,
scooby_state_1082c48|25|6 0,0,0,0,0,0,1,0,0,0,0,0,0,0,0,1,
scooby_state_114b118|4|-4 0,0,1,0,0,0,0,0,0,0,0,0,0,0,0,1,

scooby_action_0_deg_dist 0,88609,0,0,0,0,0,0,0,0,0,0,0,0,0,0,
scooby_action_-6_deg_dist 0,29282,1454,0,1352,0,597,0,0,0,0,0,0,0,0,0,
scooby_action_4_deg_dist 0,24801,1592,0,2274,0,1348,0,0,0,0,0,0,0,0,0,
scooby_action_1_deg_dist 0,1538257,108459,0,90323,0,100826,0,0,0,0,0,0,0,0,0,
scooby_action_30_deg_dist 0,11443,12,0,3,0,0,0,0,0,0,0,0,0,0,0,
scooby_action_3_deg_dist 0,29518,185,0,263,0,2498,0,0,0,0,0,0,0,0,0,
scooby_action_32_deg_dist 0,14558,68,0,12,0,21,0,0,0,0,0,0,0,0,0,
scooby_action_5_deg_dist 0,21965,66,0,53,0,250,0,0,0,0,0,0,0,0,0,
scooby_action_10_deg_dist 0,23789,1064,0,1034,0,743,0,0,0,0,0,0,0,0,0,
scooby_action_11_deg_dist 0,15376,63,0,99,0,624,0,0,0,0,0,0,0,0,0,
scooby_action_23_deg_dist 0,25049,20,0,10,0,47,0,0,0,0,0,0,0,0,0,
scooby_action_-1_deg_dist 0,164721,998,0,541,0,348,0,0,0,0,0,0,0,0,0,
scooby_action_12_deg_dist 0,14386,23,0,11,0,0,0,0,0,0,0,0,0,0,0,
scooby_action_22_deg_dist 0,14297,14,0,20,0,0,0,0,0,0,0,0,0,0,0,
scooby_action_-3_deg_dist 0,36060,3170,0,3339,0,3277,0,0,0,0,0,0,0,0,0,

scooby_track_called 2379212
scooby_track_same_address 540830
scooby_track_evict 1838126

scooby_reward_demand_called 2379212
scooby_reward_demand_pt_not_found 1888096
scooby_reward_demand_pt_found 491116
scooby_reward_demand_pt_found_total 491116
scooby_reward_demand_has_reward 197602
scooby_reward_train_called 1479199
scooby_reward_assign_reward_called 1838166
scooby_reward_no_pref 88608
scooby_reward_incorrect 1390591
scooby_reward_correct_untimely 209668
scooby_reward_correct_timely 83846
scooby_reward_out_of_bounds 65453
scooby_reward_tracker_hit 0

scooby_reward_none_low_bw 88608
scooby_reward_none_high_bw 0
scooby_reward_incorrect_low_bw 1390591
scooby_reward_incorrect_high_bw 0
scooby_reward_correct_untimely_low_bw 209668
scooby_reward_correct_untimely_high_bw 0
scooby_reward_correct_timely_low_bw 83846
scooby_reward_correct_timely_high_bw 0
scooby_reward_out_of_bounds_low_bw 65453
scooby_reward_out_of_bounds_high_bw 0
scooby_reward_tracker_hit_low_bw 0
scooby_reward_tracker_hit_high_bw 0

scooby_reward_1 0,1203188,158771,62530,25575,0,
scooby_reward_3 0,19285,5730,1582,1055,0,
scooby_reward_4 0,17684,5059,2143,1769,0,
scooby_reward_5 0,13510,1982,498,1516,0,
scooby_reward_10 0,13388,5088,1294,3859,0,
scooby_reward_11 0,9715,735,401,2534,0,
scooby_reward_12 0,9139,203,222,2603,0,
scooby_reward_22 0,6657,290,135,4339,0,
scooby_reward_23 0,7300,2470,153,4538,0,
scooby_reward_30 0,4761,60,118,5374,0,
scooby_reward_32 0,5268,93,1156,6875,0,
scooby_reward_-1 0,33812,21232,2930,621,0,
scooby_reward_-3 0,27354,5218,6496,2060,0,
scooby_reward_-6 0,19530,2737,4188,2735,0,
scooby_reward_0 88608,0,0,0,0,0,

scooby_train_called 1838125
scooby_train_compute_reward 1479199

scooby_register_fill_called 3992429
scooby_register_fill_set 1017466
scooby_register_fill_set_total 1017466

scooby_register_prefetch_hit_called 2844134
scooby_register_prefetch_hit_set 1045300
scooby_register_prefetch_hit_set_total 1045300

scooby_pref_issue_scooby 7215007

learning_engine_featurewise.action.called 2379212
learning_engine_featurewise.action.explore 4338
learning_engine_featurewise.action.exploit 2374874
learning_engine_featurewise.action.fallback 1310863
learning_engine_featurewise.action.dyn_fallback_saved_bw 0
learning_engine_featurewise.action.dyn_fallback_saved_bw_acc 537421
learning_engine_featurewise.action.index_1_explored 281
learning_engine_featurewise.action.index_1_exploited 1837584
learning_engine_featurewise.action.index_3_explored 303
learning_engine_featurewise.action.index_3_exploited 32161
learning_engine_featurewise.action.index_4_explored 302
learning_engine_featurewise.action.index_4_exploited 29713
learning_engine_featurewise.action.index_5_explored 266
learning_engine_featurewise.action.index_5_exploited 22068
learning_engine_featurewise.action.index_10_explored 323
learning_engine_featurewise.action.index_10_exploited 26307
learning_engine_featurewise.action.index_11_explored 293
learning_engine_featurewise.action.index_11_exploited 15869
learning_engine_featurewise.action.index_12_explored 291
learning_engine_featurewise.action.index_12_exploited 14129
learning_engine_featurewise.action.index_22_explored 291
learning_engine_featurewise.action.index_22_exploited 14040
learning_engine_featurewise.action.index_23_explored 290
learning_engine_featurewise.action.index_23_exploited 24836
learning_engine_featurewise.action.index_30_explored 287
learning_engine_featurewise.action.index_30_exploited 11171
learning_engine_featurewise.action.index_32_explored 246
learning_engine_featurewise.action.index_32_exploited 14413
learning_engine_featurewise.action.index_-1_explored 293
learning_engine_featurewise.action.index_-1_exploited 166315
learning_engine_featurewise.action.index_-3_explored 296
learning_engine_featurewise.action.index_-3_exploited 45550
learning_engine_featurewise.action.index_-6_explored 274
learning_engine_featurewise.action.index_-6_exploited 32411
learning_engine_featurewise.action.index_0_explored 302
learning_engine_featurewise.action.index_0_exploited 88307
learning_engine_featurewise.learn.called 1838125
learning_engine_featurewise.learn.su_skip_PC 0
learning_engine_featurewise.learn.su_skip_PC_Delta 0

learning_engine_featurewise.q_value_histogram.bucket_0 61458
learning_engine_featurewise.q_value_histogram.bucket_1 158613
learning_engine_featurewise.q_value_histogram.bucket_2 1753842
learning_engine_featurewise.q_value_histogram.bucket_3 108486
learning_engine_featurewise.q_value_histogram.bucket_4 82877
learning_engine_featurewise.q_value_histogram.bucket_5 166364
learning_engine_featurewise.q_value_histogram.bucket_6 43234
learning_engine_featurewise.q_value_histogram.bucket_7 0

learning_engine_featurewise.consensus.total 2374874
learning_engine_featurewise.consensus.feature_align_PC 2069016
learning_engine_featurewise.consensus.feature_align_PC_ratio 0.87
learning_engine_featurewise.consensus.feature_align_PC_Delta 2026961
learning_engine_featurewise.consensus.feature_align_PC_Delta_ratio 0.85
learning_engine_featurewise.consensus.feature_align_all 1917006
learning_engine_featurewise.consensus.feature_align_all_ratio 0.81

learning_engine_featurewise.feature_PC_min_weight 1000000.00000000
learning_engine_featurewise.feature_PC_max_weight 0.00000000
learning_engine_featurewise.feature_PC_Delta_min_weight 1000000.00000000
learning_engine_featurewise.feature_PC_Delta_max_weight 0.00000000
unique_pcs 2402
unique_pages 71813
unique_trigger_pcs 898
total_bitmaps_seen 0
unique_bitmaps_seen 0

scooby_bw_epochs 4213615
scooby_bw_level_0 3860669
scooby_bw_level_1 173962
scooby_bw_level_2 103021
scooby_bw_level_3 75963

scooby_ipc_epochs 0
scooby_ipc_level_0 0
scooby_ipc_level_1 0
scooby_ipc_level_2 0
scooby_ipc_level_3 0

scooby_cache_acc_epochs 214337
scooby_cache_acc_level_0 104028
scooby_cache_acc_level_1 52457
scooby_cache_acc_level_2 25793
scooby_cache_acc_level_3 10743
scooby_cache_acc_level_4 4668
scooby_cache_acc_level_5 6293
scooby_cache_acc_level_6 2514
scooby_cache_acc_level_7 1717
scooby_cache_acc_level_8 1078
scooby_cache_acc_level_9 5046

Channel_0_RQ_row_buffer_hit 869099
Channel_0_RQ_row_buffer_miss 1543537
Channel_0_WQ_row_buffer_hit 24800
Channel_0_WQ_row_buffer_miss 247153
Channel_0_WQ_full 0
Channel_0_dbus_congested 1531785

avg_congested_cycle 10

DRAM_bw_pochs 4213615
DRAM_bw_level_0 3860669
DRAM_bw_level_1 173962
DRAM_bw_level_2 103021
DRAM_bw_level_3 75963
